version 2
run rgg500-14-20170110-15:45:19-8264
attr configname rgg500
attr datetime 20170110-15:45:19
attr experiment rgg500
attr inifile iniFile/D002/omnetpp_15D002.ini
attr iterationvars ""
attr iterationvars2 $repetition=14
attr measurement ""
attr network blegossipprj.net.randomgeometricgraph.RandomGeometricGraph
attr processid 8264
attr repetition 14
attr replication #14
attr resultdir ../../results/D002/r15D002
attr runnumber 14
attr seedset 14
param RandomGeometricGraph.netSize 500
param RandomGeometricGraph.radius 15
param RandomGeometricGraph.rgnv[*].areaLength 158
param RandomGeometricGraph.rgnv[*].areaWidth 158

statistic RandomGeometricGraph.sc 	arrivalPercentage
field count 495
field mean 1
field stddev 0
field sum 495
field sqrsum 495
field min 1
field max 1
attr type  int
bin	-INF	0
bin	0	0
bin	1	495
bin	2	0
statistic RandomGeometricGraph.sc 	arrivalTime
field count 495
field mean 172.76469292929
field stddev 63.311254462521
field sum 85518.523
field sqrsum 16754688.947021
field min 0
field max 304.554
bin	-INF	0
bin	-58.0545	0
bin	-50.3139	0
bin	-42.5733	0
bin	-34.8327	0
bin	-27.0921	0
bin	-19.3515	0
bin	-11.6109	0
bin	-3.8703	1
bin	3.8703	0
bin	11.6109	1
bin	19.3515	2
bin	27.0921	0
bin	34.8327	2
bin	42.5733	5
bin	50.3139	3
bin	58.0545	6
bin	65.7951	5
bin	73.5357	11
bin	81.2763	12
bin	89.0169	9
bin	96.7575	21
bin	104.4981	12
bin	112.2387	16
bin	119.9793	21
bin	127.7199	19
bin	135.4605	20
bin	143.2011	24
bin	150.9417	23
bin	158.6823	22
bin	166.4229	22
bin	174.1635	238
statistic RandomGeometricGraph.rgnv[0] 	arrivalTime:histogram
field count 1
field mean 238.399
field stddev nan
field sum 238.399
field sqrsum 56834.083201
field min 238.399
field max 238.399
attr interpolationmode  none
attr source  arrivalTime
attr title  "arrival time, histogram"
bin	-INF	0
bin	237.899	0
bin	237.93233333333	0
bin	237.96566666667	0
bin	237.999	0
bin	238.03233333333	0
bin	238.06566666667	0
bin	238.099	0
bin	238.13233333333	0
bin	238.16566666667	0
bin	238.199	0
bin	238.23233333333	0
bin	238.26566666667	0
bin	238.299	0
bin	238.33233333333	0
bin	238.36566666667	0
bin	238.399	1
bin	238.43233333333	0
bin	238.46566666667	0
bin	238.499	0
bin	238.53233333333	0
bin	238.56566666667	0
bin	238.599	0
bin	238.63233333333	0
bin	238.66566666667	0
bin	238.699	0
bin	238.73233333333	0
bin	238.76566666667	0
bin	238.799	0
bin	238.83233333333	0
bin	238.86566666667	0
bin	238.899	0
statistic RandomGeometricGraph.rgnv[0] 	arrivalPerc:histogram
field count 1
field mean 1
field stddev nan
field sum 1
field sqrsum 1
field min 1
field max 1
attr interpolationmode  none
attr source  count(arrival)
attr title  "arrival perc, histogram"
bin	-INF	0
bin	0	0
bin	1	1
bin	2	0
statistic RandomGeometricGraph.rgnv[1] 	arrivalTime:histogram
field count 1
field mean 255.64
field stddev nan
field sum 255.64
field sqrsum 65351.8096
field min 255.64
field max 255.64
attr interpolationmode  none
attr source  arrivalTime
attr title  "arrival time, histogram"
bin	-INF	0
bin	255.14	0
bin	255.17333333333	0
bin	255.20666666667	0
bin	255.24	0
bin	255.27333333333	0
bin	255.30666666667	0
bin	255.34	0
bin	255.37333333333	0
bin	255.40666666667	0
bin	255.44	0
bin	255.47333333333	0
bin	255.50666666667	0
bin	255.54	0
bin	255.57333333333	0
bin	255.60666666667	0
bin	255.64	1
bin	255.67333333333	0
bin	255.70666666667	0
bin	255.74	0
bin	255.77333333333	0
bin	255.80666666667	0
bin	255.84	0
bin	255.87333333333	0
bin	255.90666666667	0
bin	255.94	0
bin	255.97333333333	0
bin	256.00666666667	0
bin	256.04	0
bin	256.07333333333	0
bin	256.10666666667	0
bin	256.14	0
statistic RandomGeometricGraph.rgnv[1] 	arrivalPerc:histogram
field count 1
field mean 1
field stddev nan
field sum 1
field sqrsum 1
field min 1
field max 1
attr interpolationmode  none
attr source  count(arrival)
attr title  "arrival perc, histogram"
bin	-INF	0
bin	0	0
bin	1	1
bin	2	0
statistic RandomGeometricGraph.rgnv[2] 	arrivalTime:histogram
field count 1
field mean 59.944
field stddev nan
field sum 59.944
field sqrsum 3593.283136
field min 59.944
field max 59.944
attr interpolationmode  none
attr source  arrivalTime
attr title  "arrival time, histogram"
bin	-INF	0
bin	59.444	0
bin	59.477333333333	0
bin	59.510666666667	0
bin	59.544	0
bin	59.577333333333	0
bin	59.610666666667	0
bin	59.644	0
bin	59.677333333333	0
bin	59.710666666667	0
bin	59.744	0
bin	59.777333333333	0
bin	59.810666666667	0
bin	59.844	0
bin	59.877333333333	0
bin	59.910666666667	0
bin	59.944	1
bin	59.977333333333	0
bin	60.010666666667	0
bin	60.044	0
bin	60.077333333333	0
bin	60.110666666667	0
bin	60.144	0
bin	60.177333333333	0
bin	60.210666666667	0
bin	60.244	0
bin	60.277333333333	0
bin	60.310666666667	0
bin	60.344	0
bin	60.377333333333	0
bin	60.410666666667	0
bin	60.444	0
statistic RandomGeometricGraph.rgnv[2] 	arrivalPerc:histogram
field count 1
field mean 1
field stddev nan
field sum 1
field sqrsum 1
field min 1
field max 1
attr interpolationmode  none
attr source  count(arrival)
attr title  "arrival perc, histogram"
bin	-INF	0
bin	0	0
bin	1	1
bin	2	0
statistic RandomGeometricGraph.rgnv[3] 	arrivalTime:histogram
field count 1
field mean 126.109
field stddev nan
field sum 126.109
field sqrsum 15903.479881
field min 126.109
field max 126.109
attr interpolationmode  none
attr source  arrivalTime
attr title  "arrival time, histogram"
bin	-INF	0
bin	125.609	0
bin	125.64233333333	0
bin	125.67566666667	0
bin	125.709	0
bin	125.74233333333	0
bin	125.77566666667	0
bin	125.809	0
bin	125.84233333333	0
bin	125.87566666667	0
bin	125.909	0
bin	125.94233333333	0
bin	125.97566666667	0
bin	126.009	0
bin	126.04233333333	0
bin	126.07566666667	0
bin	126.109	1
bin	126.14233333333	0
bin	126.17566666667	0
bin	126.209	0
bin	126.24233333333	0
bin	126.27566666667	0
bin	126.309	0
bin	126.34233333333	0
bin	126.37566666667	0
bin	126.409	0
bin	126.44233333333	0
bin	126.47566666667	0
bin	126.509	0
bin	126.54233333333	0
bin	126.57566666667	0
bin	126.609	0
statistic RandomGeometricGraph.rgnv[3] 	arrivalPerc:histogram
field count 1
field mean 1
field stddev nan
field sum 1
field sqrsum 1
field min 1
field max 1
attr interpolationmode  none
attr source  count(arrival)
attr title  "arrival perc, histogram"
bin	-INF	0
bin	0	0
bin	1	1
bin	2	0
statistic RandomGeometricGraph.rgnv[4] 	arrivalTime:histogram
field count 1
field mean 260.66
field stddev nan
field sum 260.66
field sqrsum 67943.6356
field min 260.66
field max 260.66
attr interpolationmode  none
attr source  arrivalTime
attr title  "arrival time, histogram"
bin	-INF	0
bin	260.16	0
bin	260.19333333333	0
bin	260.22666666667	0
bin	260.26	0
bin	260.29333333333	0
bin	260.32666666667	0
bin	260.36	0
bin	260.39333333333	0
bin	260.42666666667	0
bin	260.46	0
bin	260.49333333333	0
bin	260.52666666667	0
bin	260.56	0
bin	260.59333333333	0
bin	260.62666666667	0
bin	260.66	1
bin	260.69333333333	0
bin	260.72666666667	0
bin	260.76	0
bin	260.79333333333	0
bin	260.82666666667	0
bin	260.86	0
bin	260.89333333333	0
bin	260.92666666667	0
bin	260.96	0
bin	260.99333333333	0
bin	261.02666666667	0
bin	261.06	0
bin	261.09333333333	0
bin	261.12666666667	0
bin	261.16	0
statistic RandomGeometricGraph.rgnv[4] 	arrivalPerc:histogram
field count 1
field mean 1
field stddev nan
field sum 1
field sqrsum 1
field min 1
field max 1
attr interpolationmode  none
attr source  count(arrival)
attr title  "arrival perc, histogram"
bin	-INF	0
bin	0	0
bin	1	1
bin	2	0
statistic RandomGeometricGraph.rgnv[5] 	arrivalTime:histogram
field count 1
field mean 165.043
field stddev nan
field sum 165.043
field sqrsum 27239.191849
field min 165.043
field max 165.043
attr interpolationmode  none
attr source  arrivalTime
attr title  "arrival time, histogram"
bin	-INF	0
bin	164.543	0
bin	164.57633333333	0
bin	164.60966666667	0
bin	164.643	0
bin	164.67633333333	0
bin	164.70966666667	0
bin	164.743	0
bin	164.77633333333	0
bin	164.80966666667	0
bin	164.843	0
bin	164.87633333333	0
bin	164.90966666667	0
bin	164.943	0
bin	164.97633333333	0
bin	165.00966666667	0
bin	165.043	1
bin	165.07633333333	0
bin	165.10966666667	0
bin	165.143	0
bin	165.17633333333	0
bin	165.20966666667	0
bin	165.243	0
bin	165.27633333333	0
bin	165.30966666667	0
bin	165.343	0
bin	165.37633333333	0
bin	165.40966666667	0
bin	165.443	0
bin	165.47633333333	0
bin	165.50966666667	0
bin	165.543	0
statistic RandomGeometricGraph.rgnv[5] 	arrivalPerc:histogram
field count 1
field mean 1
field stddev nan
field sum 1
field sqrsum 1
field min 1
field max 1
attr interpolationmode  none
attr source  count(arrival)
attr title  "arrival perc, histogram"
bin	-INF	0
bin	0	0
bin	1	1
bin	2	0
statistic RandomGeometricGraph.rgnv[6] 	arrivalTime:histogram
field count 1
field mean 103.858
field stddev nan
field sum 103.858
field sqrsum 10786.484164
field min 103.858
field max 103.858
attr interpolationmode  none
attr source  arrivalTime
attr title  "arrival time, histogram"
bin	-INF	0
bin	103.358	0
bin	103.39133333333	0
bin	103.42466666667	0
bin	103.458	0
bin	103.49133333333	0
bin	103.52466666667	0
bin	103.558	0
bin	103.59133333333	0
bin	103.62466666667	0
bin	103.658	0
bin	103.69133333333	0
bin	103.72466666667	0
bin	103.758	0
bin	103.79133333333	0
bin	103.82466666667	0
bin	103.858	1
bin	103.89133333333	0
bin	103.92466666667	0
bin	103.958	0
bin	103.99133333333	0
bin	104.02466666667	0
bin	104.058	0
bin	104.09133333333	0
bin	104.12466666667	0
bin	104.158	0
bin	104.19133333333	0
bin	104.22466666667	0
bin	104.258	0
bin	104.29133333333	0
bin	104.32466666667	0
bin	104.358	0
statistic RandomGeometricGraph.rgnv[6] 	arrivalPerc:histogram
field count 1
field mean 1
field stddev nan
field sum 1
field sqrsum 1
field min 1
field max 1
attr interpolationmode  none
attr source  count(arrival)
attr title  "arrival perc, histogram"
bin	-INF	0
bin	0	0
bin	1	1
bin	2	0
statistic RandomGeometricGraph.rgnv[7] 	arrivalTime:histogram
field count 1
field mean 147.792
field stddev nan
field sum 147.792
field sqrsum 21842.475264
field min 147.792
field max 147.792
attr interpolationmode  none
attr source  arrivalTime
attr title  "arrival time, histogram"
bin	-INF	0
bin	147.292	0
bin	147.32533333333	0
bin	147.35866666667	0
bin	147.392	0
bin	147.42533333333	0
bin	147.45866666667	0
bin	147.492	0
bin	147.52533333333	0
bin	147.55866666667	0
bin	147.592	0
bin	147.62533333333	0
bin	147.65866666667	0
bin	147.692	0
bin	147.72533333333	0
bin	147.75866666667	0
bin	147.792	1
bin	147.82533333333	0
bin	147.85866666667	0
bin	147.892	0
bin	147.92533333333	0
bin	147.95866666667	0
bin	147.992	0
bin	148.02533333333	0
bin	148.05866666667	0
bin	148.092	0
bin	148.12533333333	0
bin	148.15866666667	0
bin	148.192	0
bin	148.22533333333	0
bin	148.25866666667	0
bin	148.292	0
statistic RandomGeometricGraph.rgnv[7] 	arrivalPerc:histogram
field count 1
field mean 1
field stddev nan
field sum 1
field sqrsum 1
field min 1
field max 1
attr interpolationmode  none
attr source  count(arrival)
attr title  "arrival perc, histogram"
bin	-INF	0
bin	0	0
bin	1	1
bin	2	0
statistic RandomGeometricGraph.rgnv[8] 	arrivalTime:histogram
field count 1
field mean 74.386
field stddev nan
field sum 74.386
field sqrsum 5533.276996
field min 74.386
field max 74.386
attr interpolationmode  none
attr source  arrivalTime
attr title  "arrival time, histogram"
bin	-INF	0
bin	73.886	0
bin	73.919333333333	0
bin	73.952666666667	0
bin	73.986	0
bin	74.019333333333	0
bin	74.052666666667	0
bin	74.086	0
bin	74.119333333333	0
bin	74.152666666667	0
bin	74.186	0
bin	74.219333333333	0
bin	74.252666666667	0
bin	74.286	0
bin	74.319333333333	0
bin	74.352666666667	0
bin	74.386	1
bin	74.419333333333	0
bin	74.452666666667	0
bin	74.486	0
bin	74.519333333333	0
bin	74.552666666667	0
bin	74.586	0
bin	74.619333333333	0
bin	74.652666666667	0
bin	74.686	0
bin	74.719333333333	0
bin	74.752666666667	0
bin	74.786	0
bin	74.819333333333	0
bin	74.852666666667	0
bin	74.886	0
statistic RandomGeometricGraph.rgnv[8] 	arrivalPerc:histogram
field count 1
field mean 1
field stddev nan
field sum 1
field sqrsum 1
field min 1
field max 1
attr interpolationmode  none
attr source  count(arrival)
attr title  "arrival perc, histogram"
bin	-INF	0
bin	0	0
bin	1	1
bin	2	0
statistic RandomGeometricGraph.rgnv[9] 	arrivalTime:histogram
field count 1
field mean 260.65
field stddev nan
field sum 260.65
field sqrsum 67938.4225
field min 260.65
field max 260.65
attr interpolationmode  none
attr source  arrivalTime
attr title  "arrival time, histogram"
bin	-INF	0
bin	260.15	0
bin	260.18333333333	0
bin	260.21666666667	0
bin	260.25	0
bin	260.28333333333	0
bin	260.31666666667	0
bin	260.35	0
bin	260.38333333333	0
bin	260.41666666667	0
bin	260.45	0
bin	260.48333333333	0
bin	260.51666666667	0
bin	260.55	0
bin	260.58333333333	0
bin	260.61666666667	0
bin	260.65	1
bin	260.68333333333	0
bin	260.71666666667	0
bin	260.75	0
bin	260.78333333333	0
bin	260.81666666667	0
bin	260.85	0
bin	260.88333333333	0
bin	260.91666666667	0
bin	260.95	0
bin	260.98333333333	0
bin	261.01666666667	0
bin	261.05	0
bin	261.08333333333	0
bin	261.11666666667	0
bin	261.15	0
statistic RandomGeometricGraph.rgnv[9] 	arrivalPerc:histogram
field count 1
field mean 1
field stddev nan
field sum 1
field sqrsum 1
field min 1
field max 1
attr interpolationmode  none
attr source  count(arrival)
attr title  "arrival perc, histogram"
bin	-INF	0
bin	0	0
bin	1	1
bin	2	0
statistic RandomGeometricGraph.rgnv[10] 	arrivalTime:histogram
field count 1
field mean 145.561
field stddev nan
field sum 145.561
field sqrsum 21188.004721
field min 145.561
field max 145.561
attr interpolationmode  none
attr source  arrivalTime
attr title  "arrival time, histogram"
bin	-INF	0
bin	145.061	0
bin	145.09433333333	0
bin	145.12766666667	0
bin	145.161	0
bin	145.19433333333	0
bin	145.22766666667	0
bin	145.261	0
bin	145.29433333333	0
bin	145.32766666667	0
bin	145.361	0
bin	145.39433333333	0
bin	145.42766666667	0
bin	145.461	0
bin	145.49433333333	0
bin	145.52766666667	0
bin	145.561	1
bin	145.59433333333	0
bin	145.62766666667	0
bin	145.661	0
bin	145.69433333333	0
bin	145.72766666667	0
bin	145.761	0
bin	145.79433333333	0
bin	145.82766666667	0
bin	145.861	0
bin	145.89433333333	0
bin	145.92766666667	0
bin	145.961	0
bin	145.99433333333	0
bin	146.02766666667	0
bin	146.061	0
statistic RandomGeometricGraph.rgnv[10] 	arrivalPerc:histogram
field count 1
field mean 1
field stddev nan
field sum 1
field sqrsum 1
field min 1
field max 1
attr interpolationmode  none
attr source  count(arrival)
attr title  "arrival perc, histogram"
bin	-INF	0
bin	0	0
bin	1	1
bin	2	0
statistic RandomGeometricGraph.rgnv[11] 	arrivalTime:histogram
field count 1
field mean 180.043
field stddev nan
field sum 180.043
field sqrsum 32415.481849
field min 180.043
field max 180.043
attr interpolationmode  none
attr source  arrivalTime
attr title  "arrival time, histogram"
bin	-INF	0
bin	179.543	0
bin	179.57633333333	0
bin	179.60966666667	0
bin	179.643	0
bin	179.67633333333	0
bin	179.70966666667	0
bin	179.743	0
bin	179.77633333333	0
bin	179.80966666667	0
bin	179.843	0
bin	179.87633333333	0
bin	179.90966666667	0
bin	179.943	0
bin	179.97633333333	0
bin	180.00966666667	0
bin	180.043	1
bin	180.07633333333	0
bin	180.10966666667	0
bin	180.143	0
bin	180.17633333333	0
bin	180.20966666667	0
bin	180.243	0
bin	180.27633333333	0
bin	180.30966666667	0
bin	180.343	0
bin	180.37633333333	0
bin	180.40966666667	0
bin	180.443	0
bin	180.47633333333	0
bin	180.50966666667	0
bin	180.543	0
statistic RandomGeometricGraph.rgnv[11] 	arrivalPerc:histogram
field count 1
field mean 1
field stddev nan
field sum 1
field sqrsum 1
field min 1
field max 1
attr interpolationmode  none
attr source  count(arrival)
attr title  "arrival perc, histogram"
bin	-INF	0
bin	0	0
bin	1	1
bin	2	0
statistic RandomGeometricGraph.rgnv[12] 	arrivalTime:histogram
field count 1
field mean 204.485
field stddev nan
field sum 204.485
field sqrsum 41814.115225
field min 204.485
field max 204.485
attr interpolationmode  none
attr source  arrivalTime
attr title  "arrival time, histogram"
bin	-INF	0
bin	203.985	0
bin	204.01833333333	0
bin	204.05166666667	0
bin	204.085	0
bin	204.11833333333	0
bin	204.15166666667	0
bin	204.185	0
bin	204.21833333333	0
bin	204.25166666667	0
bin	204.285	0
bin	204.31833333333	0
bin	204.35166666667	0
bin	204.385	0
bin	204.41833333333	0
bin	204.45166666667	0
bin	204.485	1
bin	204.51833333333	0
bin	204.55166666667	0
bin	204.585	0
bin	204.61833333333	0
bin	204.65166666667	0
bin	204.685	0
bin	204.71833333333	0
bin	204.75166666667	0
bin	204.785	0
bin	204.81833333333	0
bin	204.85166666667	0
bin	204.885	0
bin	204.91833333333	0
bin	204.95166666667	0
bin	204.985	0
statistic RandomGeometricGraph.rgnv[12] 	arrivalPerc:histogram
field count 1
field mean 1
field stddev nan
field sum 1
field sqrsum 1
field min 1
field max 1
attr interpolationmode  none
attr source  count(arrival)
attr title  "arrival perc, histogram"
bin	-INF	0
bin	0	0
bin	1	1
bin	2	0
statistic RandomGeometricGraph.rgnv[13] 	arrivalTime:histogram
field count 1
field mean 172.264
field stddev nan
field sum 172.264
field sqrsum 29674.885696
field min 172.264
field max 172.264
attr interpolationmode  none
attr source  arrivalTime
attr title  "arrival time, histogram"
bin	-INF	0
bin	171.764	0
bin	171.79733333333	0
bin	171.83066666667	0
bin	171.864	0
bin	171.89733333333	0
bin	171.93066666667	0
bin	171.964	0
bin	171.99733333333	0
bin	172.03066666667	0
bin	172.064	0
bin	172.09733333333	0
bin	172.13066666667	0
bin	172.164	0
bin	172.19733333333	0
bin	172.23066666667	0
bin	172.264	1
bin	172.29733333333	0
bin	172.33066666667	0
bin	172.364	0
bin	172.39733333333	0
bin	172.43066666667	0
bin	172.464	0
bin	172.49733333333	0
bin	172.53066666667	0
bin	172.564	0
bin	172.59733333333	0
bin	172.63066666667	0
bin	172.664	0
bin	172.69733333333	0
bin	172.73066666667	0
bin	172.764	0
statistic RandomGeometricGraph.rgnv[13] 	arrivalPerc:histogram
field count 1
field mean 1
field stddev nan
field sum 1
field sqrsum 1
field min 1
field max 1
attr interpolationmode  none
attr source  count(arrival)
attr title  "arrival perc, histogram"
bin	-INF	0
bin	0	0
bin	1	1
bin	2	0
statistic RandomGeometricGraph.rgnv[14] 	arrivalTime:histogram
field count 1
field mean 118.878
field stddev nan
field sum 118.878
field sqrsum 14131.978884
field min 118.878
field max 118.878
attr interpolationmode  none
attr source  arrivalTime
attr title  "arrival time, histogram"
bin	-INF	0
bin	118.378	0
bin	118.41133333333	0
bin	118.44466666667	0
bin	118.478	0
bin	118.51133333333	0
bin	118.54466666667	0
bin	118.578	0
bin	118.61133333333	0
bin	118.64466666667	0
bin	118.678	0
bin	118.71133333333	0
bin	118.74466666667	0
bin	118.778	0
bin	118.81133333333	0
bin	118.84466666667	0
bin	118.878	1
bin	118.91133333333	0
bin	118.94466666667	0
bin	118.978	0
bin	119.01133333333	0
bin	119.04466666667	0
bin	119.078	0
bin	119.11133333333	0
bin	119.14466666667	0
bin	119.178	0
bin	119.21133333333	0
bin	119.24466666667	0
bin	119.278	0
bin	119.31133333333	0
bin	119.34466666667	0
bin	119.378	0
statistic RandomGeometricGraph.rgnv[14] 	arrivalPerc:histogram
field count 1
field mean 1
field stddev nan
field sum 1
field sqrsum 1
field min 1
field max 1
attr interpolationmode  none
attr source  count(arrival)
attr title  "arrival perc, histogram"
bin	-INF	0
bin	0	0
bin	1	1
bin	2	0
statistic RandomGeometricGraph.rgnv[15] 	arrivalTime:histogram
field count 1
field mean 255.65
field stddev nan
field sum 255.65
field sqrsum 65356.9225
field min 255.65
field max 255.65
attr interpolationmode  none
attr source  arrivalTime
attr title  "arrival time, histogram"
bin	-INF	0
bin	255.15	0
bin	255.18333333333	0
bin	255.21666666667	0
bin	255.25	0
bin	255.28333333333	0
bin	255.31666666667	0
bin	255.35	0
bin	255.38333333333	0
bin	255.41666666667	0
bin	255.45	0
bin	255.48333333333	0
bin	255.51666666667	0
bin	255.55	0
bin	255.58333333333	0
bin	255.61666666667	0
bin	255.65	1
bin	255.68333333333	0
bin	255.71666666667	0
bin	255.75	0
bin	255.78333333333	0
bin	255.81666666667	0
bin	255.85	0
bin	255.88333333333	0
bin	255.91666666667	0
bin	255.95	0
bin	255.98333333333	0
bin	256.01666666667	0
bin	256.05	0
bin	256.08333333333	0
bin	256.11666666667	0
bin	256.15	0
statistic RandomGeometricGraph.rgnv[15] 	arrivalPerc:histogram
field count 1
field mean 1
field stddev nan
field sum 1
field sqrsum 1
field min 1
field max 1
attr interpolationmode  none
attr source  count(arrival)
attr title  "arrival perc, histogram"
bin	-INF	0
bin	0	0
bin	1	1
bin	2	0
statistic RandomGeometricGraph.rgnv[16] 	arrivalTime:histogram
field count 1
field mean 116.089
field stddev nan
field sum 116.089
field sqrsum 13476.655921
field min 116.089
field max 116.089
attr interpolationmode  none
attr source  arrivalTime
attr title  "arrival time, histogram"
bin	-INF	0
bin	115.589	0
bin	115.62233333333	0
bin	115.65566666667	0
bin	115.689	0
bin	115.72233333333	0
bin	115.75566666667	0
bin	115.789	0
bin	115.82233333333	0
bin	115.85566666667	0
bin	115.889	0
bin	115.92233333333	0
bin	115.95566666667	0
bin	115.989	0
bin	116.02233333333	0
bin	116.05566666667	0
bin	116.089	1
bin	116.12233333333	0
bin	116.15566666667	0
bin	116.189	0
bin	116.22233333333	0
bin	116.25566666667	0
bin	116.289	0
bin	116.32233333333	0
bin	116.35566666667	0
bin	116.389	0
bin	116.42233333333	0
bin	116.45566666667	0
bin	116.489	0
bin	116.52233333333	0
bin	116.55566666667	0
bin	116.589	0
statistic RandomGeometricGraph.rgnv[16] 	arrivalPerc:histogram
field count 1
field mean 1
field stddev nan
field sum 1
field sqrsum 1
field min 1
field max 1
attr interpolationmode  none
attr source  count(arrival)
attr title  "arrival perc, histogram"
bin	-INF	0
bin	0	0
bin	1	1
bin	2	0
statistic RandomGeometricGraph.rgnv[17] 	arrivalTime:histogram
field count 1
field mean 248.409
field stddev nan
field sum 248.409
field sqrsum 61707.031281
field min 248.409
field max 248.409
attr interpolationmode  none
attr source  arrivalTime
attr title  "arrival time, histogram"
bin	-INF	0
bin	247.909	0
bin	247.94233333333	0
bin	247.97566666667	0
bin	248.009	0
bin	248.04233333333	0
bin	248.07566666667	0
bin	248.109	0
bin	248.14233333333	0
bin	248.17566666667	0
bin	248.209	0
bin	248.24233333333	0
bin	248.27566666667	0
bin	248.309	0
bin	248.34233333333	0
bin	248.37566666667	0
bin	248.409	1
bin	248.44233333333	0
bin	248.47566666667	0
bin	248.509	0
bin	248.54233333333	0
bin	248.57566666667	0
bin	248.609	0
bin	248.64233333333	0
bin	248.67566666667	0
bin	248.709	0
bin	248.74233333333	0
bin	248.77566666667	0
bin	248.809	0
bin	248.84233333333	0
bin	248.87566666667	0
bin	248.909	0
statistic RandomGeometricGraph.rgnv[17] 	arrivalPerc:histogram
field count 1
field mean 1
field stddev nan
field sum 1
field sqrsum 1
field min 1
field max 1
attr interpolationmode  none
attr source  count(arrival)
attr title  "arrival perc, histogram"
bin	-INF	0
bin	0	0
bin	1	1
bin	2	0
statistic RandomGeometricGraph.rgnv[18] 	arrivalTime:histogram
field count 1
field mean 211.746
field stddev nan
field sum 211.746
field sqrsum 44836.368516
field min 211.746
field max 211.746
attr interpolationmode  none
attr source  arrivalTime
attr title  "arrival time, histogram"
bin	-INF	0
bin	211.246	0
bin	211.27933333333	0
bin	211.31266666667	0
bin	211.346	0
bin	211.37933333333	0
bin	211.41266666667	0
bin	211.446	0
bin	211.47933333333	0
bin	211.51266666667	0
bin	211.546	0
bin	211.57933333333	0
bin	211.61266666667	0
bin	211.646	0
bin	211.67933333333	0
bin	211.71266666667	0
bin	211.746	1
bin	211.77933333333	0
bin	211.81266666667	0
bin	211.846	0
bin	211.87933333333	0
bin	211.91266666667	0
bin	211.946	0
bin	211.97933333333	0
bin	212.01266666667	0
bin	212.046	0
bin	212.07933333333	0
bin	212.11266666667	0
bin	212.146	0
bin	212.17933333333	0
bin	212.21266666667	0
bin	212.246	0
statistic RandomGeometricGraph.rgnv[18] 	arrivalPerc:histogram
field count 1
field mean 1
field stddev nan
field sum 1
field sqrsum 1
field min 1
field max 1
attr interpolationmode  none
attr source  count(arrival)
attr title  "arrival perc, histogram"
bin	-INF	0
bin	0	0
bin	1	1
bin	2	0
statistic RandomGeometricGraph.rgnv[19] 	arrivalTime:histogram
field count 1
field mean 262.861
field stddev nan
field sum 262.861
field sqrsum 69095.905321
field min 262.861
field max 262.861
attr interpolationmode  none
attr source  arrivalTime
attr title  "arrival time, histogram"
bin	-INF	0
bin	262.361	0
bin	262.39433333333	0
bin	262.42766666667	0
bin	262.461	0
bin	262.49433333333	0
bin	262.52766666667	0
bin	262.561	0
bin	262.59433333333	0
bin	262.62766666667	0
bin	262.661	0
bin	262.69433333333	0
bin	262.72766666667	0
bin	262.761	0
bin	262.79433333333	0
bin	262.82766666667	0
bin	262.861	1
bin	262.89433333333	0
bin	262.92766666667	0
bin	262.961	0
bin	262.99433333333	0
bin	263.02766666667	0
bin	263.061	0
bin	263.09433333333	0
bin	263.12766666667	0
bin	263.161	0
bin	263.19433333333	0
bin	263.22766666667	0
bin	263.261	0
bin	263.29433333333	0
bin	263.32766666667	0
bin	263.361	0
statistic RandomGeometricGraph.rgnv[19] 	arrivalPerc:histogram
field count 1
field mean 1
field stddev nan
field sum 1
field sqrsum 1
field min 1
field max 1
attr interpolationmode  none
attr source  count(arrival)
attr title  "arrival perc, histogram"
bin	-INF	0
bin	0	0
bin	1	1
bin	2	0
statistic RandomGeometricGraph.rgnv[20] 	arrivalTime:histogram
field count 1
field mean 74.406
field stddev nan
field sum 74.406
field sqrsum 5536.252836
field min 74.406
field max 74.406
attr interpolationmode  none
attr source  arrivalTime
attr title  "arrival time, histogram"
bin	-INF	0
bin	73.906	0
bin	73.939333333333	0
bin	73.972666666667	0
bin	74.006	0
bin	74.039333333333	0
bin	74.072666666667	0
bin	74.106	0
bin	74.139333333333	0
bin	74.172666666667	0
bin	74.206	0
bin	74.239333333333	0
bin	74.272666666667	0
bin	74.306	0
bin	74.339333333333	0
bin	74.372666666667	0
bin	74.406	1
bin	74.439333333333	0
bin	74.472666666667	0
bin	74.506	0
bin	74.539333333333	0
bin	74.572666666667	0
bin	74.606	0
bin	74.639333333333	0
bin	74.672666666667	0
bin	74.706	0
bin	74.739333333333	0
bin	74.772666666667	0
bin	74.806	0
bin	74.839333333333	0
bin	74.872666666667	0
bin	74.906	0
statistic RandomGeometricGraph.rgnv[20] 	arrivalPerc:histogram
field count 1
field mean 1
field stddev nan
field sum 1
field sqrsum 1
field min 1
field max 1
attr interpolationmode  none
attr source  count(arrival)
attr title  "arrival perc, histogram"
bin	-INF	0
bin	0	0
bin	1	1
bin	2	0
statistic RandomGeometricGraph.rgnv[21] 	arrivalTime:histogram
field count 1
field mean 98.868
field stddev nan
field sum 98.868
field sqrsum 9774.881424
field min 98.868
field max 98.868
attr interpolationmode  none
attr source  arrivalTime
attr title  "arrival time, histogram"
bin	-INF	0
bin	98.368	0
bin	98.401333333333	0
bin	98.434666666667	0
bin	98.468	0
bin	98.501333333333	0
bin	98.534666666667	0
bin	98.568	0
bin	98.601333333333	0
bin	98.634666666667	0
bin	98.668	0
bin	98.701333333333	0
bin	98.734666666667	0
bin	98.768	0
bin	98.801333333333	0
bin	98.834666666667	0
bin	98.868	1
bin	98.901333333333	0
bin	98.934666666667	0
bin	98.968	0
bin	99.001333333333	0
bin	99.034666666667	0
bin	99.068	0
bin	99.101333333333	0
bin	99.134666666667	0
bin	99.168	0
bin	99.201333333333	0
bin	99.234666666667	0
bin	99.268	0
bin	99.301333333333	0
bin	99.334666666667	0
bin	99.368	0
statistic RandomGeometricGraph.rgnv[21] 	arrivalPerc:histogram
field count 1
field mean 1
field stddev nan
field sum 1
field sqrsum 1
field min 1
field max 1
attr interpolationmode  none
attr source  count(arrival)
attr title  "arrival perc, histogram"
bin	-INF	0
bin	0	0
bin	1	1
bin	2	0
statistic RandomGeometricGraph.rgnv[22] 	arrivalTime:histogram
field count 1
field mean 182.254
field stddev nan
field sum 182.254
field sqrsum 33216.520516
field min 182.254
field max 182.254
attr interpolationmode  none
attr source  arrivalTime
attr title  "arrival time, histogram"
bin	-INF	0
bin	181.754	0
bin	181.78733333333	0
bin	181.82066666667	0
bin	181.854	0
bin	181.88733333333	0
bin	181.92066666667	0
bin	181.954	0
bin	181.98733333333	0
bin	182.02066666667	0
bin	182.054	0
bin	182.08733333333	0
bin	182.12066666667	0
bin	182.154	0
bin	182.18733333333	0
bin	182.22066666667	0
bin	182.254	1
bin	182.28733333333	0
bin	182.32066666667	0
bin	182.354	0
bin	182.38733333333	0
bin	182.42066666667	0
bin	182.454	0
bin	182.48733333333	0
bin	182.52066666667	0
bin	182.554	0
bin	182.58733333333	0
bin	182.62066666667	0
bin	182.654	0
bin	182.68733333333	0
bin	182.72066666667	0
bin	182.754	0
statistic RandomGeometricGraph.rgnv[22] 	arrivalPerc:histogram
field count 1
field mean 1
field stddev nan
field sum 1
field sqrsum 1
field min 1
field max 1
attr interpolationmode  none
attr source  count(arrival)
attr title  "arrival perc, histogram"
bin	-INF	0
bin	0	0
bin	1	1
bin	2	0
statistic RandomGeometricGraph.rgnv[23] 	arrivalTime:histogram
field count 1
field mean 231.178
field stddev nan
field sum 231.178
field sqrsum 53443.267684
field min 231.178
field max 231.178
attr interpolationmode  none
attr source  arrivalTime
attr title  "arrival time, histogram"
bin	-INF	0
bin	230.678	0
bin	230.71133333333	0
bin	230.74466666667	0
bin	230.778	0
bin	230.81133333333	0
bin	230.84466666667	0
bin	230.878	0
bin	230.91133333333	0
bin	230.94466666667	0
bin	230.978	0
bin	231.01133333333	0
bin	231.04466666667	0
bin	231.078	0
bin	231.11133333333	0
bin	231.14466666667	0
bin	231.178	1
bin	231.21133333333	0
bin	231.24466666667	0
bin	231.278	0
bin	231.31133333333	0
bin	231.34466666667	0
bin	231.378	0
bin	231.41133333333	0
bin	231.44466666667	0
bin	231.478	0
bin	231.51133333333	0
bin	231.54466666667	0
bin	231.578	0
bin	231.61133333333	0
bin	231.64466666667	0
bin	231.678	0
statistic RandomGeometricGraph.rgnv[23] 	arrivalPerc:histogram
field count 1
field mean 1
field stddev nan
field sum 1
field sqrsum 1
field min 1
field max 1
attr interpolationmode  none
attr source  count(arrival)
attr title  "arrival perc, histogram"
bin	-INF	0
bin	0	0
bin	1	1
bin	2	0
statistic RandomGeometricGraph.rgnv[24] 	arrivalTime:histogram
field count 1
field mean 116.089
field stddev nan
field sum 116.089
field sqrsum 13476.655921
field min 116.089
field max 116.089
attr interpolationmode  none
attr source  arrivalTime
attr title  "arrival time, histogram"
bin	-INF	0
bin	115.589	0
bin	115.62233333333	0
bin	115.65566666667	0
bin	115.689	0
bin	115.72233333333	0
bin	115.75566666667	0
bin	115.789	0
bin	115.82233333333	0
bin	115.85566666667	0
bin	115.889	0
bin	115.92233333333	0
bin	115.95566666667	0
bin	115.989	0
bin	116.02233333333	0
bin	116.05566666667	0
bin	116.089	1
bin	116.12233333333	0
bin	116.15566666667	0
bin	116.189	0
bin	116.22233333333	0
bin	116.25566666667	0
bin	116.289	0
bin	116.32233333333	0
bin	116.35566666667	0
bin	116.389	0
bin	116.42233333333	0
bin	116.45566666667	0
bin	116.489	0
bin	116.52233333333	0
bin	116.55566666667	0
bin	116.589	0
statistic RandomGeometricGraph.rgnv[24] 	arrivalPerc:histogram
field count 1
field mean 1
field stddev nan
field sum 1
field sqrsum 1
field min 1
field max 1
attr interpolationmode  none
attr source  count(arrival)
attr title  "arrival perc, histogram"
bin	-INF	0
bin	0	0
bin	1	1
bin	2	0
statistic RandomGeometricGraph.rgnv[25] 	arrivalTime:histogram
field count 1
field mean 189.495
field stddev nan
field sum 189.495
field sqrsum 35908.355025
field min 189.495
field max 189.495
attr interpolationmode  none
attr source  arrivalTime
attr title  "arrival time, histogram"
bin	-INF	0
bin	188.995	0
bin	189.02833333333	0
bin	189.06166666667	0
bin	189.095	0
bin	189.12833333333	0
bin	189.16166666667	0
bin	189.195	0
bin	189.22833333333	0
bin	189.26166666667	0
bin	189.295	0
bin	189.32833333333	0
bin	189.36166666667	0
bin	189.395	0
bin	189.42833333333	0
bin	189.46166666667	0
bin	189.495	1
bin	189.52833333333	0
bin	189.56166666667	0
bin	189.595	0
bin	189.62833333333	0
bin	189.66166666667	0
bin	189.695	0
bin	189.72833333333	0
bin	189.76166666667	0
bin	189.795	0
bin	189.82833333333	0
bin	189.86166666667	0
bin	189.895	0
bin	189.92833333333	0
bin	189.96166666667	0
bin	189.995	0
statistic RandomGeometricGraph.rgnv[25] 	arrivalPerc:histogram
field count 1
field mean 1
field stddev nan
field sum 1
field sqrsum 1
field min 1
field max 1
attr interpolationmode  none
attr source  count(arrival)
attr title  "arrival perc, histogram"
bin	-INF	0
bin	0	0
bin	1	1
bin	2	0
statistic RandomGeometricGraph.rgnv[26] 	arrivalTime:histogram
field count 1
field mean 182.264
field stddev nan
field sum 182.264
field sqrsum 33220.165696
field min 182.264
field max 182.264
attr interpolationmode  none
attr source  arrivalTime
attr title  "arrival time, histogram"
bin	-INF	0
bin	181.764	0
bin	181.79733333333	0
bin	181.83066666667	0
bin	181.864	0
bin	181.89733333333	0
bin	181.93066666667	0
bin	181.964	0
bin	181.99733333333	0
bin	182.03066666667	0
bin	182.064	0
bin	182.09733333333	0
bin	182.13066666667	0
bin	182.164	0
bin	182.19733333333	0
bin	182.23066666667	0
bin	182.264	1
bin	182.29733333333	0
bin	182.33066666667	0
bin	182.364	0
bin	182.39733333333	0
bin	182.43066666667	0
bin	182.464	0
bin	182.49733333333	0
bin	182.53066666667	0
bin	182.564	0
bin	182.59733333333	0
bin	182.63066666667	0
bin	182.664	0
bin	182.69733333333	0
bin	182.73066666667	0
bin	182.764	0
statistic RandomGeometricGraph.rgnv[26] 	arrivalPerc:histogram
field count 1
field mean 1
field stddev nan
field sum 1
field sqrsum 1
field min 1
field max 1
attr interpolationmode  none
attr source  count(arrival)
attr title  "arrival perc, histogram"
bin	-INF	0
bin	0	0
bin	1	1
bin	2	0
statistic RandomGeometricGraph.rgnv[27] 	arrivalTime:histogram
field count 1
field mean 101.647
field stddev nan
field sum 101.647
field sqrsum 10332.112609
field min 101.647
field max 101.647
attr interpolationmode  none
attr source  arrivalTime
attr title  "arrival time, histogram"
bin	-INF	0
bin	101.147	0
bin	101.18033333333	0
bin	101.21366666667	0
bin	101.247	0
bin	101.28033333333	0
bin	101.31366666667	0
bin	101.347	0
bin	101.38033333333	0
bin	101.41366666667	0
bin	101.447	0
bin	101.48033333333	0
bin	101.51366666667	0
bin	101.547	0
bin	101.58033333333	0
bin	101.61366666667	0
bin	101.647	1
bin	101.68033333333	0
bin	101.71366666667	0
bin	101.747	0
bin	101.78033333333	0
bin	101.81366666667	0
bin	101.847	0
bin	101.88033333333	0
bin	101.91366666667	0
bin	101.947	0
bin	101.98033333333	0
bin	102.01366666667	0
bin	102.047	0
bin	102.08033333333	0
bin	102.11366666667	0
bin	102.147	0
statistic RandomGeometricGraph.rgnv[27] 	arrivalPerc:histogram
field count 1
field mean 1
field stddev nan
field sum 1
field sqrsum 1
field min 1
field max 1
attr interpolationmode  none
attr source  count(arrival)
attr title  "arrival perc, histogram"
bin	-INF	0
bin	0	0
bin	1	1
bin	2	0
statistic RandomGeometricGraph.rgnv[28] 	arrivalTime:histogram
field count 1
field mean 140.551
field stddev nan
field sum 140.551
field sqrsum 19754.583601
field min 140.551
field max 140.551
attr interpolationmode  none
attr source  arrivalTime
attr title  "arrival time, histogram"
bin	-INF	0
bin	140.051	0
bin	140.08433333333	0
bin	140.11766666667	0
bin	140.151	0
bin	140.18433333333	0
bin	140.21766666667	0
bin	140.251	0
bin	140.28433333333	0
bin	140.31766666667	0
bin	140.351	0
bin	140.38433333333	0
bin	140.41766666667	0
bin	140.451	0
bin	140.48433333333	0
bin	140.51766666667	0
bin	140.551	1
bin	140.58433333333	0
bin	140.61766666667	0
bin	140.651	0
bin	140.68433333333	0
bin	140.71766666667	0
bin	140.751	0
bin	140.78433333333	0
bin	140.81766666667	0
bin	140.851	0
bin	140.88433333333	0
bin	140.91766666667	0
bin	140.951	0
bin	140.98433333333	0
bin	141.01766666667	0
bin	141.051	0
statistic RandomGeometricGraph.rgnv[28] 	arrivalPerc:histogram
field count 1
field mean 1
field stddev nan
field sum 1
field sqrsum 1
field min 1
field max 1
attr interpolationmode  none
attr source  count(arrival)
attr title  "arrival perc, histogram"
bin	-INF	0
bin	0	0
bin	1	1
bin	2	0
statistic RandomGeometricGraph.rgnv[29] 	arrivalTime:histogram
field count 1
field mean 231.188
field stddev nan
field sum 231.188
field sqrsum 53447.891344
field min 231.188
field max 231.188
attr interpolationmode  none
attr source  arrivalTime
attr title  "arrival time, histogram"
bin	-INF	0
bin	230.688	0
bin	230.72133333333	0
bin	230.75466666667	0
bin	230.788	0
bin	230.82133333333	0
bin	230.85466666667	0
bin	230.888	0
bin	230.92133333333	0
bin	230.95466666667	0
bin	230.988	0
bin	231.02133333333	0
bin	231.05466666667	0
bin	231.088	0
bin	231.12133333333	0
bin	231.15466666667	0
bin	231.188	1
bin	231.22133333333	0
bin	231.25466666667	0
bin	231.288	0
bin	231.32133333333	0
bin	231.35466666667	0
bin	231.388	0
bin	231.42133333333	0
bin	231.45466666667	0
bin	231.488	0
bin	231.52133333333	0
bin	231.55466666667	0
bin	231.588	0
bin	231.62133333333	0
bin	231.65466666667	0
bin	231.688	0
statistic RandomGeometricGraph.rgnv[29] 	arrivalPerc:histogram
field count 1
field mean 1
field stddev nan
field sum 1
field sqrsum 1
field min 1
field max 1
attr interpolationmode  none
attr source  count(arrival)
attr title  "arrival perc, histogram"
bin	-INF	0
bin	0	0
bin	1	1
bin	2	0
statistic RandomGeometricGraph.rgnv[30] 	arrivalTime:histogram
field count 1
field mean 214.495
field stddev nan
field sum 214.495
field sqrsum 46008.105025
field min 214.495
field max 214.495
attr interpolationmode  none
attr source  arrivalTime
attr title  "arrival time, histogram"
bin	-INF	0
bin	213.995	0
bin	214.02833333333	0
bin	214.06166666667	0
bin	214.095	0
bin	214.12833333333	0
bin	214.16166666667	0
bin	214.195	0
bin	214.22833333333	0
bin	214.26166666667	0
bin	214.295	0
bin	214.32833333333	0
bin	214.36166666667	0
bin	214.395	0
bin	214.42833333333	0
bin	214.46166666667	0
bin	214.495	1
bin	214.52833333333	0
bin	214.56166666667	0
bin	214.595	0
bin	214.62833333333	0
bin	214.66166666667	0
bin	214.695	0
bin	214.72833333333	0
bin	214.76166666667	0
bin	214.795	0
bin	214.82833333333	0
bin	214.86166666667	0
bin	214.895	0
bin	214.92833333333	0
bin	214.96166666667	0
bin	214.995	0
statistic RandomGeometricGraph.rgnv[30] 	arrivalPerc:histogram
field count 1
field mean 1
field stddev nan
field sum 1
field sqrsum 1
field min 1
field max 1
attr interpolationmode  none
attr source  count(arrival)
attr title  "arrival perc, histogram"
bin	-INF	0
bin	0	0
bin	1	1
bin	2	0
statistic RandomGeometricGraph.rgnv[31] 	arrivalTime:histogram
field count 1
field mean 196.736
field stddev nan
field sum 196.736
field sqrsum 38705.053696
field min 196.736
field max 196.736
attr interpolationmode  none
attr source  arrivalTime
attr title  "arrival time, histogram"
bin	-INF	0
bin	196.236	0
bin	196.26933333333	0
bin	196.30266666667	0
bin	196.336	0
bin	196.36933333333	0
bin	196.40266666667	0
bin	196.436	0
bin	196.46933333333	0
bin	196.50266666667	0
bin	196.536	0
bin	196.56933333333	0
bin	196.60266666667	0
bin	196.636	0
bin	196.66933333333	0
bin	196.70266666667	0
bin	196.736	1
bin	196.76933333333	0
bin	196.80266666667	0
bin	196.836	0
bin	196.86933333333	0
bin	196.90266666667	0
bin	196.936	0
bin	196.96933333333	0
bin	197.00266666667	0
bin	197.036	0
bin	197.06933333333	0
bin	197.10266666667	0
bin	197.136	0
bin	197.16933333333	0
bin	197.20266666667	0
bin	197.236	0
statistic RandomGeometricGraph.rgnv[31] 	arrivalPerc:histogram
field count 1
field mean 1
field stddev nan
field sum 1
field sqrsum 1
field min 1
field max 1
attr interpolationmode  none
attr source  count(arrival)
attr title  "arrival perc, histogram"
bin	-INF	0
bin	0	0
bin	1	1
bin	2	0
statistic RandomGeometricGraph.rgnv[32] 	arrivalTime:histogram
field count 1
field mean 128.34
field stddev nan
field sum 128.34
field sqrsum 16471.1556
field min 128.34
field max 128.34
attr interpolationmode  none
attr source  arrivalTime
attr title  "arrival time, histogram"
bin	-INF	0
bin	127.84	0
bin	127.87333333333	0
bin	127.90666666667	0
bin	127.94	0
bin	127.97333333333	0
bin	128.00666666667	0
bin	128.04	0
bin	128.07333333333	0
bin	128.10666666667	0
bin	128.14	0
bin	128.17333333333	0
bin	128.20666666667	0
bin	128.24	0
bin	128.27333333333	0
bin	128.30666666667	0
bin	128.34	1
bin	128.37333333333	0
bin	128.40666666667	0
bin	128.44	0
bin	128.47333333333	0
bin	128.50666666667	0
bin	128.54	0
bin	128.57333333333	0
bin	128.60666666667	0
bin	128.64	0
bin	128.67333333333	0
bin	128.70666666667	0
bin	128.74	0
bin	128.77333333333	0
bin	128.80666666667	0
bin	128.84	0
statistic RandomGeometricGraph.rgnv[32] 	arrivalPerc:histogram
field count 1
field mean 1
field stddev nan
field sum 1
field sqrsum 1
field min 1
field max 1
attr interpolationmode  none
attr source  count(arrival)
attr title  "arrival perc, histogram"
bin	-INF	0
bin	0	0
bin	1	1
bin	2	0
statistic RandomGeometricGraph.rgnv[33] 	arrivalTime:histogram
field count 1
field mean 243.409
field stddev nan
field sum 243.409
field sqrsum 59247.941281
field min 243.409
field max 243.409
attr interpolationmode  none
attr source  arrivalTime
attr title  "arrival time, histogram"
bin	-INF	0
bin	242.909	0
bin	242.94233333333	0
bin	242.97566666667	0
bin	243.009	0
bin	243.04233333333	0
bin	243.07566666667	0
bin	243.109	0
bin	243.14233333333	0
bin	243.17566666667	0
bin	243.209	0
bin	243.24233333333	0
bin	243.27566666667	0
bin	243.309	0
bin	243.34233333333	0
bin	243.37566666667	0
bin	243.409	1
bin	243.44233333333	0
bin	243.47566666667	0
bin	243.509	0
bin	243.54233333333	0
bin	243.57566666667	0
bin	243.609	0
bin	243.64233333333	0
bin	243.67566666667	0
bin	243.709	0
bin	243.74233333333	0
bin	243.77566666667	0
bin	243.809	0
bin	243.84233333333	0
bin	243.87566666667	0
bin	243.909	0
statistic RandomGeometricGraph.rgnv[33] 	arrivalPerc:histogram
field count 1
field mean 1
field stddev nan
field sum 1
field sqrsum 1
field min 1
field max 1
attr interpolationmode  none
attr source  count(arrival)
attr title  "arrival perc, histogram"
bin	-INF	0
bin	0	0
bin	1	1
bin	2	0
statistic RandomGeometricGraph.rgnv[34] 	arrivalTime:histogram
field count 1
field mean 265.65
field stddev nan
field sum 265.65
field sqrsum 70569.9225
field min 265.65
field max 265.65
attr interpolationmode  none
attr source  arrivalTime
attr title  "arrival time, histogram"
bin	-INF	0
bin	265.15	0
bin	265.18333333333	0
bin	265.21666666667	0
bin	265.25	0
bin	265.28333333333	0
bin	265.31666666667	0
bin	265.35	0
bin	265.38333333333	0
bin	265.41666666667	0
bin	265.45	0
bin	265.48333333333	0
bin	265.51666666667	0
bin	265.55	0
bin	265.58333333333	0
bin	265.61666666667	0
bin	265.65	1
bin	265.68333333333	0
bin	265.71666666667	0
bin	265.75	0
bin	265.78333333333	0
bin	265.81666666667	0
bin	265.85	0
bin	265.88333333333	0
bin	265.91666666667	0
bin	265.95	0
bin	265.98333333333	0
bin	266.01666666667	0
bin	266.05	0
bin	266.08333333333	0
bin	266.11666666667	0
bin	266.15	0
statistic RandomGeometricGraph.rgnv[34] 	arrivalPerc:histogram
field count 1
field mean 1
field stddev nan
field sum 1
field sqrsum 1
field min 1
field max 1
attr interpolationmode  none
attr source  count(arrival)
attr title  "arrival perc, histogram"
bin	-INF	0
bin	0	0
bin	1	1
bin	2	0
statistic RandomGeometricGraph.rgnv[35] 	arrivalTime:histogram
field count 1
field mean 133.34
field stddev nan
field sum 133.34
field sqrsum 17779.5556
field min 133.34
field max 133.34
attr interpolationmode  none
attr source  arrivalTime
attr title  "arrival time, histogram"
bin	-INF	0
bin	132.84	0
bin	132.87333333333	0
bin	132.90666666667	0
bin	132.94	0
bin	132.97333333333	0
bin	133.00666666667	0
bin	133.04	0
bin	133.07333333333	0
bin	133.10666666667	0
bin	133.14	0
bin	133.17333333333	0
bin	133.20666666667	0
bin	133.24	0
bin	133.27333333333	0
bin	133.30666666667	0
bin	133.34	1
bin	133.37333333333	0
bin	133.40666666667	0
bin	133.44	0
bin	133.47333333333	0
bin	133.50666666667	0
bin	133.54	0
bin	133.57333333333	0
bin	133.60666666667	0
bin	133.64	0
bin	133.67333333333	0
bin	133.70666666667	0
bin	133.74	0
bin	133.77333333333	0
bin	133.80666666667	0
bin	133.84	0
statistic RandomGeometricGraph.rgnv[35] 	arrivalPerc:histogram
field count 1
field mean 1
field stddev nan
field sum 1
field sqrsum 1
field min 1
field max 1
attr interpolationmode  none
attr source  count(arrival)
attr title  "arrival perc, histogram"
bin	-INF	0
bin	0	0
bin	1	1
bin	2	0
statistic RandomGeometricGraph.rgnv[36] 	arrivalTime:histogram
field count 1
field mean 292.333
field stddev nan
field sum 292.333
field sqrsum 85458.582889
field min 292.333
field max 292.333
attr interpolationmode  none
attr source  arrivalTime
attr title  "arrival time, histogram"
bin	-INF	0
bin	291.833	0
bin	291.86633333333	0
bin	291.89966666667	0
bin	291.933	0
bin	291.96633333333	0
bin	291.99966666667	0
bin	292.033	0
bin	292.06633333333	0
bin	292.09966666667	0
bin	292.133	0
bin	292.16633333333	0
bin	292.19966666667	0
bin	292.233	0
bin	292.26633333333	0
bin	292.29966666667	0
bin	292.333	1
bin	292.36633333333	0
bin	292.39966666667	0
bin	292.433	0
bin	292.46633333333	0
bin	292.49966666667	0
bin	292.533	0
bin	292.56633333333	0
bin	292.59966666667	0
bin	292.633	0
bin	292.66633333333	0
bin	292.69966666667	0
bin	292.733	0
bin	292.76633333333	0
bin	292.79966666667	0
bin	292.833	0
statistic RandomGeometricGraph.rgnv[36] 	arrivalPerc:histogram
field count 1
field mean 1
field stddev nan
field sum 1
field sqrsum 1
field min 1
field max 1
attr interpolationmode  none
attr source  count(arrival)
attr title  "arrival perc, histogram"
bin	-INF	0
bin	0	0
bin	1	1
bin	2	0
statistic RandomGeometricGraph.rgnv[37] 	arrivalTime:histogram
field count 1
field mean 147.782
field stddev nan
field sum 147.782
field sqrsum 21839.519524
field min 147.782
field max 147.782
attr interpolationmode  none
attr source  arrivalTime
attr title  "arrival time, histogram"
bin	-INF	0
bin	147.282	0
bin	147.31533333333	0
bin	147.34866666667	0
bin	147.382	0
bin	147.41533333333	0
bin	147.44866666667	0
bin	147.482	0
bin	147.51533333333	0
bin	147.54866666667	0
bin	147.582	0
bin	147.61533333333	0
bin	147.64866666667	0
bin	147.682	0
bin	147.71533333333	0
bin	147.74866666667	0
bin	147.782	1
bin	147.81533333333	0
bin	147.84866666667	0
bin	147.882	0
bin	147.91533333333	0
bin	147.94866666667	0
bin	147.982	0
bin	148.01533333333	0
bin	148.04866666667	0
bin	148.082	0
bin	148.11533333333	0
bin	148.14866666667	0
bin	148.182	0
bin	148.21533333333	0
bin	148.24866666667	0
bin	148.282	0
statistic RandomGeometricGraph.rgnv[37] 	arrivalPerc:histogram
field count 1
field mean 1
field stddev nan
field sum 1
field sqrsum 1
field min 1
field max 1
attr interpolationmode  none
attr source  count(arrival)
attr title  "arrival perc, histogram"
bin	-INF	0
bin	0	0
bin	1	1
bin	2	0
statistic RandomGeometricGraph.rgnv[38] 	arrivalTime:histogram
field count 1
field mean 199.485
field stddev nan
field sum 199.485
field sqrsum 39794.265225
field min 199.485
field max 199.485
attr interpolationmode  none
attr source  arrivalTime
attr title  "arrival time, histogram"
bin	-INF	0
bin	198.985	0
bin	199.01833333333	0
bin	199.05166666667	0
bin	199.085	0
bin	199.11833333333	0
bin	199.15166666667	0
bin	199.185	0
bin	199.21833333333	0
bin	199.25166666667	0
bin	199.285	0
bin	199.31833333333	0
bin	199.35166666667	0
bin	199.385	0
bin	199.41833333333	0
bin	199.45166666667	0
bin	199.485	1
bin	199.51833333333	0
bin	199.55166666667	0
bin	199.585	0
bin	199.61833333333	0
bin	199.65166666667	0
bin	199.685	0
bin	199.71833333333	0
bin	199.75166666667	0
bin	199.785	0
bin	199.81833333333	0
bin	199.85166666667	0
bin	199.885	0
bin	199.91833333333	0
bin	199.95166666667	0
bin	199.985	0
statistic RandomGeometricGraph.rgnv[38] 	arrivalPerc:histogram
field count 1
field mean 1
field stddev nan
field sum 1
field sqrsum 1
field min 1
field max 1
attr interpolationmode  none
attr source  count(arrival)
attr title  "arrival perc, histogram"
bin	-INF	0
bin	0	0
bin	1	1
bin	2	0
statistic RandomGeometricGraph.rgnv[39] 	arrivalTime:histogram
field count 1
field mean 157.792
field stddev nan
field sum 157.792
field sqrsum 24898.315264
field min 157.792
field max 157.792
attr interpolationmode  none
attr source  arrivalTime
attr title  "arrival time, histogram"
bin	-INF	0
bin	157.292	0
bin	157.32533333333	0
bin	157.35866666667	0
bin	157.392	0
bin	157.42533333333	0
bin	157.45866666667	0
bin	157.492	0
bin	157.52533333333	0
bin	157.55866666667	0
bin	157.592	0
bin	157.62533333333	0
bin	157.65866666667	0
bin	157.692	0
bin	157.72533333333	0
bin	157.75866666667	0
bin	157.792	1
bin	157.82533333333	0
bin	157.85866666667	0
bin	157.892	0
bin	157.92533333333	0
bin	157.95866666667	0
bin	157.992	0
bin	158.02533333333	0
bin	158.05866666667	0
bin	158.092	0
bin	158.12533333333	0
bin	158.15866666667	0
bin	158.192	0
bin	158.22533333333	0
bin	158.25866666667	0
bin	158.292	0
statistic RandomGeometricGraph.rgnv[39] 	arrivalPerc:histogram
field count 1
field mean 1
field stddev nan
field sum 1
field sqrsum 1
field min 1
field max 1
attr interpolationmode  none
attr source  count(arrival)
attr title  "arrival perc, histogram"
bin	-INF	0
bin	0	0
bin	1	1
bin	2	0
statistic RandomGeometricGraph.rgnv[40] 	arrivalTime:histogram
field count 1
field mean 206.726
field stddev nan
field sum 206.726
field sqrsum 42735.639076
field min 206.726
field max 206.726
attr interpolationmode  none
attr source  arrivalTime
attr title  "arrival time, histogram"
bin	-INF	0
bin	206.226	0
bin	206.25933333333	0
bin	206.29266666667	0
bin	206.326	0
bin	206.35933333333	0
bin	206.39266666667	0
bin	206.426	0
bin	206.45933333333	0
bin	206.49266666667	0
bin	206.526	0
bin	206.55933333333	0
bin	206.59266666667	0
bin	206.626	0
bin	206.65933333333	0
bin	206.69266666667	0
bin	206.726	1
bin	206.75933333333	0
bin	206.79266666667	0
bin	206.826	0
bin	206.85933333333	0
bin	206.89266666667	0
bin	206.926	0
bin	206.95933333333	0
bin	206.99266666667	0
bin	207.026	0
bin	207.05933333333	0
bin	207.09266666667	0
bin	207.126	0
bin	207.15933333333	0
bin	207.19266666667	0
bin	207.226	0
statistic RandomGeometricGraph.rgnv[40] 	arrivalPerc:histogram
field count 1
field mean 1
field stddev nan
field sum 1
field sqrsum 1
field min 1
field max 1
attr interpolationmode  none
attr source  count(arrival)
attr title  "arrival perc, histogram"
bin	-INF	0
bin	0	0
bin	1	1
bin	2	0
statistic RandomGeometricGraph.rgnv[41] 	arrivalTime:histogram
field count 1
field mean 165.023
field stddev nan
field sum 165.023
field sqrsum 27232.590529
field min 165.023
field max 165.023
attr interpolationmode  none
attr source  arrivalTime
attr title  "arrival time, histogram"
bin	-INF	0
bin	164.523	0
bin	164.55633333333	0
bin	164.58966666667	0
bin	164.623	0
bin	164.65633333333	0
bin	164.68966666667	0
bin	164.723	0
bin	164.75633333333	0
bin	164.78966666667	0
bin	164.823	0
bin	164.85633333333	0
bin	164.88966666667	0
bin	164.923	0
bin	164.95633333333	0
bin	164.98966666667	0
bin	165.023	1
bin	165.05633333333	0
bin	165.08966666667	0
bin	165.123	0
bin	165.15633333333	0
bin	165.18966666667	0
bin	165.223	0
bin	165.25633333333	0
bin	165.28966666667	0
bin	165.323	0
bin	165.35633333333	0
bin	165.38966666667	0
bin	165.423	0
bin	165.45633333333	0
bin	165.48966666667	0
bin	165.523	0
statistic RandomGeometricGraph.rgnv[41] 	arrivalPerc:histogram
field count 1
field mean 1
field stddev nan
field sum 1
field sqrsum 1
field min 1
field max 1
attr interpolationmode  none
attr source  count(arrival)
attr title  "arrival perc, histogram"
bin	-INF	0
bin	0	0
bin	1	1
bin	2	0
statistic RandomGeometricGraph.rgnv[42] 	arrivalTime:histogram
field count 1
field mean 82.175
field stddev nan
field sum 82.175
field sqrsum 6752.730625
field min 82.175
field max 82.175
attr interpolationmode  none
attr source  arrivalTime
attr title  "arrival time, histogram"
bin	-INF	0
bin	81.675	0
bin	81.708333333333	0
bin	81.741666666667	0
bin	81.775	0
bin	81.808333333333	0
bin	81.841666666667	0
bin	81.875	0
bin	81.908333333333	0
bin	81.941666666667	0
bin	81.975	0
bin	82.008333333333	0
bin	82.041666666667	0
bin	82.075	0
bin	82.108333333333	0
bin	82.141666666667	0
bin	82.175	1
bin	82.208333333333	0
bin	82.241666666667	0
bin	82.275	0
bin	82.308333333333	0
bin	82.341666666667	0
bin	82.375	0
bin	82.408333333333	0
bin	82.441666666667	0
bin	82.475	0
bin	82.508333333333	0
bin	82.541666666667	0
bin	82.575	0
bin	82.608333333333	0
bin	82.641666666667	0
bin	82.675	0
statistic RandomGeometricGraph.rgnv[42] 	arrivalPerc:histogram
field count 1
field mean 1
field stddev nan
field sum 1
field sqrsum 1
field min 1
field max 1
attr interpolationmode  none
attr source  count(arrival)
attr title  "arrival perc, histogram"
bin	-INF	0
bin	0	0
bin	1	1
bin	2	0
statistic RandomGeometricGraph.rgnv[43] 	arrivalTime:histogram
field count 1
field mean 111.109
field stddev nan
field sum 111.109
field sqrsum 12345.209881
field min 111.109
field max 111.109
attr interpolationmode  none
attr source  arrivalTime
attr title  "arrival time, histogram"
bin	-INF	0
bin	110.609	0
bin	110.64233333333	0
bin	110.67566666667	0
bin	110.709	0
bin	110.74233333333	0
bin	110.77566666667	0
bin	110.809	0
bin	110.84233333333	0
bin	110.87566666667	0
bin	110.909	0
bin	110.94233333333	0
bin	110.97566666667	0
bin	111.009	0
bin	111.04233333333	0
bin	111.07566666667	0
bin	111.109	1
bin	111.14233333333	0
bin	111.17566666667	0
bin	111.209	0
bin	111.24233333333	0
bin	111.27566666667	0
bin	111.309	0
bin	111.34233333333	0
bin	111.37566666667	0
bin	111.409	0
bin	111.44233333333	0
bin	111.47566666667	0
bin	111.509	0
bin	111.54233333333	0
bin	111.57566666667	0
bin	111.609	0
statistic RandomGeometricGraph.rgnv[43] 	arrivalPerc:histogram
field count 1
field mean 1
field stddev nan
field sum 1
field sqrsum 1
field min 1
field max 1
attr interpolationmode  none
attr source  count(arrival)
attr title  "arrival perc, histogram"
bin	-INF	0
bin	0	0
bin	1	1
bin	2	0
statistic RandomGeometricGraph.rgnv[44] 	arrivalTime:histogram
field count 1
field mean 299.564
field stddev nan
field sum 299.564
field sqrsum 89738.590096
field min 299.564
field max 299.564
attr interpolationmode  none
attr source  arrivalTime
attr title  "arrival time, histogram"
bin	-INF	0
bin	299.064	0
bin	299.09733333333	0
bin	299.13066666667	0
bin	299.164	0
bin	299.19733333333	0
bin	299.23066666667	0
bin	299.264	0
bin	299.29733333333	0
bin	299.33066666667	0
bin	299.364	0
bin	299.39733333333	0
bin	299.43066666667	0
bin	299.464	0
bin	299.49733333333	0
bin	299.53066666667	0
bin	299.564	1
bin	299.59733333333	0
bin	299.63066666667	0
bin	299.664	0
bin	299.69733333333	0
bin	299.73066666667	0
bin	299.764	0
bin	299.79733333333	0
bin	299.83066666667	0
bin	299.864	0
bin	299.89733333333	0
bin	299.93066666667	0
bin	299.964	0
bin	299.99733333333	0
bin	300.03066666667	0
bin	300.064	0
statistic RandomGeometricGraph.rgnv[44] 	arrivalPerc:histogram
field count 1
field mean 1
field stddev nan
field sum 1
field sqrsum 1
field min 1
field max 1
attr interpolationmode  none
attr source  count(arrival)
attr title  "arrival perc, histogram"
bin	-INF	0
bin	0	0
bin	1	1
bin	2	0
statistic RandomGeometricGraph.rgnv[45] 	arrivalTime:histogram
field count 1
field mean 140.551
field stddev nan
field sum 140.551
field sqrsum 19754.583601
field min 140.551
field max 140.551
attr interpolationmode  none
attr source  arrivalTime
attr title  "arrival time, histogram"
bin	-INF	0
bin	140.051	0
bin	140.08433333333	0
bin	140.11766666667	0
bin	140.151	0
bin	140.18433333333	0
bin	140.21766666667	0
bin	140.251	0
bin	140.28433333333	0
bin	140.31766666667	0
bin	140.351	0
bin	140.38433333333	0
bin	140.41766666667	0
bin	140.451	0
bin	140.48433333333	0
bin	140.51766666667	0
bin	140.551	1
bin	140.58433333333	0
bin	140.61766666667	0
bin	140.651	0
bin	140.68433333333	0
bin	140.71766666667	0
bin	140.751	0
bin	140.78433333333	0
bin	140.81766666667	0
bin	140.851	0
bin	140.88433333333	0
bin	140.91766666667	0
bin	140.951	0
bin	140.98433333333	0
bin	141.01766666667	0
bin	141.051	0
statistic RandomGeometricGraph.rgnv[45] 	arrivalPerc:histogram
field count 1
field mean 1
field stddev nan
field sum 1
field sqrsum 1
field min 1
field max 1
attr interpolationmode  none
attr source  count(arrival)
attr title  "arrival perc, histogram"
bin	-INF	0
bin	0	0
bin	1	1
bin	2	0
statistic RandomGeometricGraph.rgnv[46] 	arrivalTime:histogram
field count 1
field mean 187.254
field stddev nan
field sum 187.254
field sqrsum 35064.060516
field min 187.254
field max 187.254
attr interpolationmode  none
attr source  arrivalTime
attr title  "arrival time, histogram"
bin	-INF	0
bin	186.754	0
bin	186.78733333333	0
bin	186.82066666667	0
bin	186.854	0
bin	186.88733333333	0
bin	186.92066666667	0
bin	186.954	0
bin	186.98733333333	0
bin	187.02066666667	0
bin	187.054	0
bin	187.08733333333	0
bin	187.12066666667	0
bin	187.154	0
bin	187.18733333333	0
bin	187.22066666667	0
bin	187.254	1
bin	187.28733333333	0
bin	187.32066666667	0
bin	187.354	0
bin	187.38733333333	0
bin	187.42066666667	0
bin	187.454	0
bin	187.48733333333	0
bin	187.52066666667	0
bin	187.554	0
bin	187.58733333333	0
bin	187.62066666667	0
bin	187.654	0
bin	187.68733333333	0
bin	187.72066666667	0
bin	187.754	0
statistic RandomGeometricGraph.rgnv[46] 	arrivalPerc:histogram
field count 1
field mean 1
field stddev nan
field sum 1
field sqrsum 1
field min 1
field max 1
attr interpolationmode  none
attr source  count(arrival)
attr title  "arrival perc, histogram"
bin	-INF	0
bin	0	0
bin	1	1
bin	2	0
statistic RandomGeometricGraph.rgnv[47] 	arrivalTime:histogram
field count 1
field mean 231.178
field stddev nan
field sum 231.178
field sqrsum 53443.267684
field min 231.178
field max 231.178
attr interpolationmode  none
attr source  arrivalTime
attr title  "arrival time, histogram"
bin	-INF	0
bin	230.678	0
bin	230.71133333333	0
bin	230.74466666667	0
bin	230.778	0
bin	230.81133333333	0
bin	230.84466666667	0
bin	230.878	0
bin	230.91133333333	0
bin	230.94466666667	0
bin	230.978	0
bin	231.01133333333	0
bin	231.04466666667	0
bin	231.078	0
bin	231.11133333333	0
bin	231.14466666667	0
bin	231.178	1
bin	231.21133333333	0
bin	231.24466666667	0
bin	231.278	0
bin	231.31133333333	0
bin	231.34466666667	0
bin	231.378	0
bin	231.41133333333	0
bin	231.44466666667	0
bin	231.478	0
bin	231.51133333333	0
bin	231.54466666667	0
bin	231.578	0
bin	231.61133333333	0
bin	231.64466666667	0
bin	231.678	0
statistic RandomGeometricGraph.rgnv[47] 	arrivalPerc:histogram
field count 1
field mean 1
field stddev nan
field sum 1
field sqrsum 1
field min 1
field max 1
attr interpolationmode  none
attr source  count(arrival)
attr title  "arrival perc, histogram"
bin	-INF	0
bin	0	0
bin	1	1
bin	2	0
statistic RandomGeometricGraph.rgnv[48] 	arrivalTime:histogram
field count 1
field mean 272.881
field stddev nan
field sum 272.881
field sqrsum 74464.040161
field min 272.881
field max 272.881
attr interpolationmode  none
attr source  arrivalTime
attr title  "arrival time, histogram"
bin	-INF	0
bin	272.381	0
bin	272.41433333333	0
bin	272.44766666667	0
bin	272.481	0
bin	272.51433333333	0
bin	272.54766666667	0
bin	272.581	0
bin	272.61433333333	0
bin	272.64766666667	0
bin	272.681	0
bin	272.71433333333	0
bin	272.74766666667	0
bin	272.781	0
bin	272.81433333333	0
bin	272.84766666667	0
bin	272.881	1
bin	272.91433333333	0
bin	272.94766666667	0
bin	272.981	0
bin	273.01433333333	0
bin	273.04766666667	0
bin	273.081	0
bin	273.11433333333	0
bin	273.14766666667	0
bin	273.181	0
bin	273.21433333333	0
bin	273.24766666667	0
bin	273.281	0
bin	273.31433333333	0
bin	273.34766666667	0
bin	273.381	0
statistic RandomGeometricGraph.rgnv[48] 	arrivalPerc:histogram
field count 1
field mean 1
field stddev nan
field sum 1
field sqrsum 1
field min 1
field max 1
attr interpolationmode  none
attr source  count(arrival)
attr title  "arrival perc, histogram"
bin	-INF	0
bin	0	0
bin	1	1
bin	2	0
statistic RandomGeometricGraph.rgnv[49] 	arrivalTime:histogram
field count 1
field mean 128.32
field stddev nan
field sum 128.32
field sqrsum 16466.0224
field min 128.32
field max 128.32
attr interpolationmode  none
attr source  arrivalTime
attr title  "arrival time, histogram"
bin	-INF	0
bin	127.82	0
bin	127.85333333333	0
bin	127.88666666667	0
bin	127.92	0
bin	127.95333333333	0
bin	127.98666666667	0
bin	128.02	0
bin	128.05333333333	0
bin	128.08666666667	0
bin	128.12	0
bin	128.15333333333	0
bin	128.18666666667	0
bin	128.22	0
bin	128.25333333333	0
bin	128.28666666667	0
bin	128.32	1
bin	128.35333333333	0
bin	128.38666666667	0
bin	128.42	0
bin	128.45333333333	0
bin	128.48666666667	0
bin	128.52	0
bin	128.55333333333	0
bin	128.58666666667	0
bin	128.62	0
bin	128.65333333333	0
bin	128.68666666667	0
bin	128.72	0
bin	128.75333333333	0
bin	128.78666666667	0
bin	128.82	0
statistic RandomGeometricGraph.rgnv[49] 	arrivalPerc:histogram
field count 1
field mean 1
field stddev nan
field sum 1
field sqrsum 1
field min 1
field max 1
attr interpolationmode  none
attr source  count(arrival)
attr title  "arrival perc, histogram"
bin	-INF	0
bin	0	0
bin	1	1
bin	2	0
statistic RandomGeometricGraph.rgnv[50] 	arrivalTime:histogram
field count 1
field mean 79.416
field stddev nan
field sum 79.416
field sqrsum 6306.901056
field min 79.416
field max 79.416
attr interpolationmode  none
attr source  arrivalTime
attr title  "arrival time, histogram"
bin	-INF	0
bin	78.916	0
bin	78.949333333333	0
bin	78.982666666667	0
bin	79.016	0
bin	79.049333333333	0
bin	79.082666666667	0
bin	79.116	0
bin	79.149333333333	0
bin	79.182666666667	0
bin	79.216	0
bin	79.249333333333	0
bin	79.282666666667	0
bin	79.316	0
bin	79.349333333333	0
bin	79.382666666667	0
bin	79.416	1
bin	79.449333333333	0
bin	79.482666666667	0
bin	79.516	0
bin	79.549333333333	0
bin	79.582666666667	0
bin	79.616	0
bin	79.649333333333	0
bin	79.682666666667	0
bin	79.716	0
bin	79.749333333333	0
bin	79.782666666667	0
bin	79.816	0
bin	79.849333333333	0
bin	79.882666666667	0
bin	79.916	0
statistic RandomGeometricGraph.rgnv[50] 	arrivalPerc:histogram
field count 1
field mean 1
field stddev nan
field sum 1
field sqrsum 1
field min 1
field max 1
attr interpolationmode  none
attr source  count(arrival)
attr title  "arrival perc, histogram"
bin	-INF	0
bin	0	0
bin	1	1
bin	2	0
statistic RandomGeometricGraph.rgnv[51] 	arrivalTime:histogram
field count 1
field mean 49.924
field stddev nan
field sum 49.924
field sqrsum 2492.405776
field min 49.924
field max 49.924
attr interpolationmode  none
attr source  arrivalTime
attr title  "arrival time, histogram"
bin	-INF	0
bin	49.424	0
bin	49.457333333333	0
bin	49.490666666667	0
bin	49.524	0
bin	49.557333333333	0
bin	49.590666666667	0
bin	49.624	0
bin	49.657333333333	0
bin	49.690666666667	0
bin	49.724	0
bin	49.757333333333	0
bin	49.790666666667	0
bin	49.824	0
bin	49.857333333333	0
bin	49.890666666667	0
bin	49.924	1
bin	49.957333333333	0
bin	49.990666666667	0
bin	50.024	0
bin	50.057333333333	0
bin	50.090666666667	0
bin	50.124	0
bin	50.157333333333	0
bin	50.190666666667	0
bin	50.224	0
bin	50.257333333333	0
bin	50.290666666667	0
bin	50.324	0
bin	50.357333333333	0
bin	50.390666666667	0
bin	50.424	0
statistic RandomGeometricGraph.rgnv[51] 	arrivalPerc:histogram
field count 1
field mean 1
field stddev nan
field sum 1
field sqrsum 1
field min 1
field max 1
attr interpolationmode  none
attr source  count(arrival)
attr title  "arrival perc, histogram"
bin	-INF	0
bin	0	0
bin	1	1
bin	2	0
statistic RandomGeometricGraph.rgnv[52] 	arrivalTime:histogram
field count 1
field mean 108.868
field stddev nan
field sum 108.868
field sqrsum 11852.241424
field min 108.868
field max 108.868
attr interpolationmode  none
attr source  arrivalTime
attr title  "arrival time, histogram"
bin	-INF	0
bin	108.368	0
bin	108.40133333333	0
bin	108.43466666667	0
bin	108.468	0
bin	108.50133333333	0
bin	108.53466666667	0
bin	108.568	0
bin	108.60133333333	0
bin	108.63466666667	0
bin	108.668	0
bin	108.70133333333	0
bin	108.73466666667	0
bin	108.768	0
bin	108.80133333333	0
bin	108.83466666667	0
bin	108.868	1
bin	108.90133333333	0
bin	108.93466666667	0
bin	108.968	0
bin	109.00133333333	0
bin	109.03466666667	0
bin	109.068	0
bin	109.10133333333	0
bin	109.13466666667	0
bin	109.168	0
bin	109.20133333333	0
bin	109.23466666667	0
bin	109.268	0
bin	109.30133333333	0
bin	109.33466666667	0
bin	109.368	0
statistic RandomGeometricGraph.rgnv[52] 	arrivalPerc:histogram
field count 1
field mean 1
field stddev nan
field sum 1
field sqrsum 1
field min 1
field max 1
attr interpolationmode  none
attr source  count(arrival)
attr title  "arrival perc, histogram"
bin	-INF	0
bin	0	0
bin	1	1
bin	2	0
statistic RandomGeometricGraph.rgnv[53] 	arrivalTime:histogram
field count 1
field mean 280.122
field stddev nan
field sum 280.122
field sqrsum 78468.334884
field min 280.122
field max 280.122
attr interpolationmode  none
attr source  arrivalTime
attr title  "arrival time, histogram"
bin	-INF	0
bin	279.622	0
bin	279.65533333333	0
bin	279.68866666667	0
bin	279.722	0
bin	279.75533333333	0
bin	279.78866666667	0
bin	279.822	0
bin	279.85533333333	0
bin	279.88866666667	0
bin	279.922	0
bin	279.95533333333	0
bin	279.98866666667	0
bin	280.022	0
bin	280.05533333333	0
bin	280.08866666667	0
bin	280.122	1
bin	280.15533333333	0
bin	280.18866666667	0
bin	280.222	0
bin	280.25533333333	0
bin	280.28866666667	0
bin	280.322	0
bin	280.35533333333	0
bin	280.38866666667	0
bin	280.422	0
bin	280.45533333333	0
bin	280.48866666667	0
bin	280.522	0
bin	280.55533333333	0
bin	280.58866666667	0
bin	280.622	0
statistic RandomGeometricGraph.rgnv[53] 	arrivalPerc:histogram
field count 1
field mean 1
field stddev nan
field sum 1
field sqrsum 1
field min 1
field max 1
attr interpolationmode  none
attr source  count(arrival)
attr title  "arrival perc, histogram"
bin	-INF	0
bin	0	0
bin	1	1
bin	2	0
statistic RandomGeometricGraph.rgnv[54] 	arrivalTime:histogram
field count 1
field mean 145.551
field stddev nan
field sum 145.551
field sqrsum 21185.093601
field min 145.551
field max 145.551
attr interpolationmode  none
attr source  arrivalTime
attr title  "arrival time, histogram"
bin	-INF	0
bin	145.051	0
bin	145.08433333333	0
bin	145.11766666667	0
bin	145.151	0
bin	145.18433333333	0
bin	145.21766666667	0
bin	145.251	0
bin	145.28433333333	0
bin	145.31766666667	0
bin	145.351	0
bin	145.38433333333	0
bin	145.41766666667	0
bin	145.451	0
bin	145.48433333333	0
bin	145.51766666667	0
bin	145.551	1
bin	145.58433333333	0
bin	145.61766666667	0
bin	145.651	0
bin	145.68433333333	0
bin	145.71766666667	0
bin	145.751	0
bin	145.78433333333	0
bin	145.81766666667	0
bin	145.851	0
bin	145.88433333333	0
bin	145.91766666667	0
bin	145.951	0
bin	145.98433333333	0
bin	146.01766666667	0
bin	146.051	0
statistic RandomGeometricGraph.rgnv[54] 	arrivalPerc:histogram
field count 1
field mean 1
field stddev nan
field sum 1
field sqrsum 1
field min 1
field max 1
attr interpolationmode  none
attr source  count(arrival)
attr title  "arrival perc, histogram"
bin	-INF	0
bin	0	0
bin	1	1
bin	2	0
statistic RandomGeometricGraph.rgnv[55] 	arrivalTime:histogram
field count 1
field mean 79.406
field stddev nan
field sum 79.406
field sqrsum 6305.312836
field min 79.406
field max 79.406
attr interpolationmode  none
attr source  arrivalTime
attr title  "arrival time, histogram"
bin	-INF	0
bin	78.906	0
bin	78.939333333333	0
bin	78.972666666667	0
bin	79.006	0
bin	79.039333333333	0
bin	79.072666666667	0
bin	79.106	0
bin	79.139333333333	0
bin	79.172666666667	0
bin	79.206	0
bin	79.239333333333	0
bin	79.272666666667	0
bin	79.306	0
bin	79.339333333333	0
bin	79.372666666667	0
bin	79.406	1
bin	79.439333333333	0
bin	79.472666666667	0
bin	79.506	0
bin	79.539333333333	0
bin	79.572666666667	0
bin	79.606	0
bin	79.639333333333	0
bin	79.672666666667	0
bin	79.706	0
bin	79.739333333333	0
bin	79.772666666667	0
bin	79.806	0
bin	79.839333333333	0
bin	79.872666666667	0
bin	79.906	0
statistic RandomGeometricGraph.rgnv[55] 	arrivalPerc:histogram
field count 1
field mean 1
field stddev nan
field sum 1
field sqrsum 1
field min 1
field max 1
attr interpolationmode  none
attr source  count(arrival)
attr title  "arrival perc, histogram"
bin	-INF	0
bin	0	0
bin	1	1
bin	2	0
statistic RandomGeometricGraph.rgnv[56] 	arrivalTime:histogram
field count 1
field mean 206.706
field stddev nan
field sum 206.706
field sqrsum 42727.370436
field min 206.706
field max 206.706
attr interpolationmode  none
attr source  arrivalTime
attr title  "arrival time, histogram"
bin	-INF	0
bin	206.206	0
bin	206.23933333333	0
bin	206.27266666667	0
bin	206.306	0
bin	206.33933333333	0
bin	206.37266666667	0
bin	206.406	0
bin	206.43933333333	0
bin	206.47266666667	0
bin	206.506	0
bin	206.53933333333	0
bin	206.57266666667	0
bin	206.606	0
bin	206.63933333333	0
bin	206.67266666667	0
bin	206.706	1
bin	206.73933333333	0
bin	206.77266666667	0
bin	206.806	0
bin	206.83933333333	0
bin	206.87266666667	0
bin	206.906	0
bin	206.93933333333	0
bin	206.97266666667	0
bin	207.006	0
bin	207.03933333333	0
bin	207.07266666667	0
bin	207.106	0
bin	207.13933333333	0
bin	207.17266666667	0
bin	207.206	0
statistic RandomGeometricGraph.rgnv[56] 	arrivalPerc:histogram
field count 1
field mean 1
field stddev nan
field sum 1
field sqrsum 1
field min 1
field max 1
attr interpolationmode  none
attr source  count(arrival)
attr title  "arrival perc, histogram"
bin	-INF	0
bin	0	0
bin	1	1
bin	2	0
statistic RandomGeometricGraph.rgnv[57] 	arrivalTime:histogram
field count 1
field mean 150.571
field stddev nan
field sum 150.571
field sqrsum 22671.626041
field min 150.571
field max 150.571
attr interpolationmode  none
attr source  arrivalTime
attr title  "arrival time, histogram"
bin	-INF	0
bin	150.071	0
bin	150.10433333333	0
bin	150.13766666667	0
bin	150.171	0
bin	150.20433333333	0
bin	150.23766666667	0
bin	150.271	0
bin	150.30433333333	0
bin	150.33766666667	0
bin	150.371	0
bin	150.40433333333	0
bin	150.43766666667	0
bin	150.471	0
bin	150.50433333333	0
bin	150.53766666667	0
bin	150.571	1
bin	150.60433333333	0
bin	150.63766666667	0
bin	150.671	0
bin	150.70433333333	0
bin	150.73766666667	0
bin	150.771	0
bin	150.80433333333	0
bin	150.83766666667	0
bin	150.871	0
bin	150.90433333333	0
bin	150.93766666667	0
bin	150.971	0
bin	151.00433333333	0
bin	151.03766666667	0
bin	151.071	0
statistic RandomGeometricGraph.rgnv[57] 	arrivalPerc:histogram
field count 1
field mean 1
field stddev nan
field sum 1
field sqrsum 1
field min 1
field max 1
attr interpolationmode  none
attr source  count(arrival)
attr title  "arrival perc, histogram"
bin	-INF	0
bin	0	0
bin	1	1
bin	2	0
statistic RandomGeometricGraph.rgnv[58] 	arrivalTime:histogram
field count 1
field mean 221.168
field stddev nan
field sum 221.168
field sqrsum 48915.284224
field min 221.168
field max 221.168
attr interpolationmode  none
attr source  arrivalTime
attr title  "arrival time, histogram"
bin	-INF	0
bin	220.668	0
bin	220.70133333333	0
bin	220.73466666667	0
bin	220.768	0
bin	220.80133333333	0
bin	220.83466666667	0
bin	220.868	0
bin	220.90133333333	0
bin	220.93466666667	0
bin	220.968	0
bin	221.00133333333	0
bin	221.03466666667	0
bin	221.068	0
bin	221.10133333333	0
bin	221.13466666667	0
bin	221.168	1
bin	221.20133333333	0
bin	221.23466666667	0
bin	221.268	0
bin	221.30133333333	0
bin	221.33466666667	0
bin	221.368	0
bin	221.40133333333	0
bin	221.43466666667	0
bin	221.468	0
bin	221.50133333333	0
bin	221.53466666667	0
bin	221.568	0
bin	221.60133333333	0
bin	221.63466666667	0
bin	221.668	0
statistic RandomGeometricGraph.rgnv[58] 	arrivalPerc:histogram
field count 1
field mean 1
field stddev nan
field sum 1
field sqrsum 1
field min 1
field max 1
attr interpolationmode  none
attr source  count(arrival)
attr title  "arrival perc, histogram"
bin	-INF	0
bin	0	0
bin	1	1
bin	2	0
statistic RandomGeometricGraph.rgnv[59] 	arrivalTime:histogram
field count 1
field mean 196.706
field stddev nan
field sum 196.706
field sqrsum 38693.250436
field min 196.706
field max 196.706
attr interpolationmode  none
attr source  arrivalTime
attr title  "arrival time, histogram"
bin	-INF	0
bin	196.206	0
bin	196.23933333333	0
bin	196.27266666667	0
bin	196.306	0
bin	196.33933333333	0
bin	196.37266666667	0
bin	196.406	0
bin	196.43933333333	0
bin	196.47266666667	0
bin	196.506	0
bin	196.53933333333	0
bin	196.57266666667	0
bin	196.606	0
bin	196.63933333333	0
bin	196.67266666667	0
bin	196.706	1
bin	196.73933333333	0
bin	196.77266666667	0
bin	196.806	0
bin	196.83933333333	0
bin	196.87266666667	0
bin	196.906	0
bin	196.93933333333	0
bin	196.97266666667	0
bin	197.006	0
bin	197.03933333333	0
bin	197.07266666667	0
bin	197.106	0
bin	197.13933333333	0
bin	197.17266666667	0
bin	197.206	0
statistic RandomGeometricGraph.rgnv[59] 	arrivalPerc:histogram
field count 1
field mean 1
field stddev nan
field sum 1
field sqrsum 1
field min 1
field max 1
attr interpolationmode  none
attr source  count(arrival)
attr title  "arrival perc, histogram"
bin	-INF	0
bin	0	0
bin	1	1
bin	2	0
statistic RandomGeometricGraph.rgnv[60] 	arrivalTime:histogram
field count 1
field mean 187.274
field stddev nan
field sum 187.274
field sqrsum 35071.551076
field min 187.274
field max 187.274
attr interpolationmode  none
attr source  arrivalTime
attr title  "arrival time, histogram"
bin	-INF	0
bin	186.774	0
bin	186.80733333333	0
bin	186.84066666667	0
bin	186.874	0
bin	186.90733333333	0
bin	186.94066666667	0
bin	186.974	0
bin	187.00733333333	0
bin	187.04066666667	0
bin	187.074	0
bin	187.10733333333	0
bin	187.14066666667	0
bin	187.174	0
bin	187.20733333333	0
bin	187.24066666667	0
bin	187.274	1
bin	187.30733333333	0
bin	187.34066666667	0
bin	187.374	0
bin	187.40733333333	0
bin	187.44066666667	0
bin	187.474	0
bin	187.50733333333	0
bin	187.54066666667	0
bin	187.574	0
bin	187.60733333333	0
bin	187.64066666667	0
bin	187.674	0
bin	187.70733333333	0
bin	187.74066666667	0
bin	187.774	0
statistic RandomGeometricGraph.rgnv[60] 	arrivalPerc:histogram
field count 1
field mean 1
field stddev nan
field sum 1
field sqrsum 1
field min 1
field max 1
attr interpolationmode  none
attr source  count(arrival)
attr title  "arrival perc, histogram"
bin	-INF	0
bin	0	0
bin	1	1
bin	2	0
statistic RandomGeometricGraph.rgnv[61] 	arrivalTime:histogram
field count 1
field mean 143.33
field stddev nan
field sum 143.33
field sqrsum 20543.4889
field min 143.33
field max 143.33
attr interpolationmode  none
attr source  arrivalTime
attr title  "arrival time, histogram"
bin	-INF	0
bin	142.83	0
bin	142.86333333333	0
bin	142.89666666667	0
bin	142.93	0
bin	142.96333333333	0
bin	142.99666666667	0
bin	143.03	0
bin	143.06333333333	0
bin	143.09666666667	0
bin	143.13	0
bin	143.16333333333	0
bin	143.19666666667	0
bin	143.23	0
bin	143.26333333333	0
bin	143.29666666667	0
bin	143.33	1
bin	143.36333333333	0
bin	143.39666666667	0
bin	143.43	0
bin	143.46333333333	0
bin	143.49666666667	0
bin	143.53	0
bin	143.56333333333	0
bin	143.59666666667	0
bin	143.63	0
bin	143.66333333333	0
bin	143.69666666667	0
bin	143.73	0
bin	143.76333333333	0
bin	143.79666666667	0
bin	143.83	0
statistic RandomGeometricGraph.rgnv[61] 	arrivalPerc:histogram
field count 1
field mean 1
field stddev nan
field sum 1
field sqrsum 1
field min 1
field max 1
attr interpolationmode  none
attr source  count(arrival)
attr title  "arrival perc, histogram"
bin	-INF	0
bin	0	0
bin	1	1
bin	2	0
statistic RandomGeometricGraph.rgnv[62] 	arrivalTime:histogram
field count 1
field mean 172.244
field stddev nan
field sum 172.244
field sqrsum 29667.995536
field min 172.244
field max 172.244
attr interpolationmode  none
attr source  arrivalTime
attr title  "arrival time, histogram"
bin	-INF	0
bin	171.744	0
bin	171.77733333333	0
bin	171.81066666667	0
bin	171.844	0
bin	171.87733333333	0
bin	171.91066666667	0
bin	171.944	0
bin	171.97733333333	0
bin	172.01066666667	0
bin	172.044	0
bin	172.07733333333	0
bin	172.11066666667	0
bin	172.144	0
bin	172.17733333333	0
bin	172.21066666667	0
bin	172.244	1
bin	172.27733333333	0
bin	172.31066666667	0
bin	172.344	0
bin	172.37733333333	0
bin	172.41066666667	0
bin	172.444	0
bin	172.47733333333	0
bin	172.51066666667	0
bin	172.544	0
bin	172.57733333333	0
bin	172.61066666667	0
bin	172.644	0
bin	172.67733333333	0
bin	172.71066666667	0
bin	172.744	0
statistic RandomGeometricGraph.rgnv[62] 	arrivalPerc:histogram
field count 1
field mean 1
field stddev nan
field sum 1
field sqrsum 1
field min 1
field max 1
attr interpolationmode  none
attr source  count(arrival)
attr title  "arrival perc, histogram"
bin	-INF	0
bin	0	0
bin	1	1
bin	2	0
statistic RandomGeometricGraph.rgnv[63] 	arrivalTime:histogram
field count 1
field mean 113.868
field stddev nan
field sum 113.868
field sqrsum 12965.921424
field min 113.868
field max 113.868
attr interpolationmode  none
attr source  arrivalTime
attr title  "arrival time, histogram"
bin	-INF	0
bin	113.368	0
bin	113.40133333333	0
bin	113.43466666667	0
bin	113.468	0
bin	113.50133333333	0
bin	113.53466666667	0
bin	113.568	0
bin	113.60133333333	0
bin	113.63466666667	0
bin	113.668	0
bin	113.70133333333	0
bin	113.73466666667	0
bin	113.768	0
bin	113.80133333333	0
bin	113.83466666667	0
bin	113.868	1
bin	113.90133333333	0
bin	113.93466666667	0
bin	113.968	0
bin	114.00133333333	0
bin	114.03466666667	0
bin	114.068	0
bin	114.10133333333	0
bin	114.13466666667	0
bin	114.168	0
bin	114.20133333333	0
bin	114.23466666667	0
bin	114.268	0
bin	114.30133333333	0
bin	114.33466666667	0
bin	114.368	0
statistic RandomGeometricGraph.rgnv[63] 	arrivalPerc:histogram
field count 1
field mean 1
field stddev nan
field sum 1
field sqrsum 1
field min 1
field max 1
attr interpolationmode  none
attr source  count(arrival)
attr title  "arrival perc, histogram"
bin	-INF	0
bin	0	0
bin	1	1
bin	2	0
statistic RandomGeometricGraph.rgnv[64] 	arrivalTime:histogram
field count 1
field mean 96.627
field stddev nan
field sum 96.627
field sqrsum 9336.777129
field min 96.627
field max 96.627
attr interpolationmode  none
attr source  arrivalTime
attr title  "arrival time, histogram"
bin	-INF	0
bin	96.127	0
bin	96.160333333333	0
bin	96.193666666667	0
bin	96.227	0
bin	96.260333333333	0
bin	96.293666666667	0
bin	96.327	0
bin	96.360333333333	0
bin	96.393666666667	0
bin	96.427	0
bin	96.460333333333	0
bin	96.493666666667	0
bin	96.527	0
bin	96.560333333333	0
bin	96.593666666667	0
bin	96.627	1
bin	96.660333333333	0
bin	96.693666666667	0
bin	96.727	0
bin	96.760333333333	0
bin	96.793666666667	0
bin	96.827	0
bin	96.860333333333	0
bin	96.893666666667	0
bin	96.927	0
bin	96.960333333333	0
bin	96.993666666667	0
bin	97.027	0
bin	97.060333333333	0
bin	97.093666666667	0
bin	97.127	0
statistic RandomGeometricGraph.rgnv[64] 	arrivalPerc:histogram
field count 1
field mean 1
field stddev nan
field sum 1
field sqrsum 1
field min 1
field max 1
attr interpolationmode  none
attr source  count(arrival)
attr title  "arrival perc, histogram"
bin	-INF	0
bin	0	0
bin	1	1
bin	2	0
statistic RandomGeometricGraph.rgnv[65] 	arrivalTime:histogram
field count 1
field mean 182.254
field stddev nan
field sum 182.254
field sqrsum 33216.520516
field min 182.254
field max 182.254
attr interpolationmode  none
attr source  arrivalTime
attr title  "arrival time, histogram"
bin	-INF	0
bin	181.754	0
bin	181.78733333333	0
bin	181.82066666667	0
bin	181.854	0
bin	181.88733333333	0
bin	181.92066666667	0
bin	181.954	0
bin	181.98733333333	0
bin	182.02066666667	0
bin	182.054	0
bin	182.08733333333	0
bin	182.12066666667	0
bin	182.154	0
bin	182.18733333333	0
bin	182.22066666667	0
bin	182.254	1
bin	182.28733333333	0
bin	182.32066666667	0
bin	182.354	0
bin	182.38733333333	0
bin	182.42066666667	0
bin	182.454	0
bin	182.48733333333	0
bin	182.52066666667	0
bin	182.554	0
bin	182.58733333333	0
bin	182.62066666667	0
bin	182.654	0
bin	182.68733333333	0
bin	182.72066666667	0
bin	182.754	0
statistic RandomGeometricGraph.rgnv[65] 	arrivalPerc:histogram
field count 1
field mean 1
field stddev nan
field sum 1
field sqrsum 1
field min 1
field max 1
attr interpolationmode  none
attr source  count(arrival)
attr title  "arrival perc, histogram"
bin	-INF	0
bin	0	0
bin	1	1
bin	2	0
statistic RandomGeometricGraph.rgnv[66] 	arrivalTime:histogram
field count 1
field mean 145.571
field stddev nan
field sum 145.571
field sqrsum 21190.916041
field min 145.571
field max 145.571
attr interpolationmode  none
attr source  arrivalTime
attr title  "arrival time, histogram"
bin	-INF	0
bin	145.071	0
bin	145.10433333333	0
bin	145.13766666667	0
bin	145.171	0
bin	145.20433333333	0
bin	145.23766666667	0
bin	145.271	0
bin	145.30433333333	0
bin	145.33766666667	0
bin	145.371	0
bin	145.40433333333	0
bin	145.43766666667	0
bin	145.471	0
bin	145.50433333333	0
bin	145.53766666667	0
bin	145.571	1
bin	145.60433333333	0
bin	145.63766666667	0
bin	145.671	0
bin	145.70433333333	0
bin	145.73766666667	0
bin	145.771	0
bin	145.80433333333	0
bin	145.83766666667	0
bin	145.871	0
bin	145.90433333333	0
bin	145.93766666667	0
bin	145.971	0
bin	146.00433333333	0
bin	146.03766666667	0
bin	146.071	0
statistic RandomGeometricGraph.rgnv[66] 	arrivalPerc:histogram
field count 1
field mean 1
field stddev nan
field sum 1
field sqrsum 1
field min 1
field max 1
[...]
bin	-INF	0
bin	0	0
bin	1	1
bin	2	0
statistic RandomGeometricGraph.rgnv[483] 	arrivalTime:histogram
field count 1
field mean 84.396
field stddev nan
field sum 84.396
field sqrsum 7122.684816
field min 84.396
field max 84.396
attr interpolationmode  none
attr source  arrivalTime
attr title  "arrival time, histogram"
bin	-INF	0
bin	83.896	0
bin	83.929333333333	0
bin	83.962666666667	0
bin	83.996	0
bin	84.029333333333	0
bin	84.062666666667	0
bin	84.096	0
bin	84.129333333333	0
bin	84.162666666667	0
bin	84.196	0
bin	84.229333333333	0
bin	84.262666666667	0
bin	84.296	0
bin	84.329333333333	0
bin	84.362666666667	0
bin	84.396	1
bin	84.429333333333	0
bin	84.462666666667	0
bin	84.496	0
bin	84.529333333333	0
bin	84.562666666667	0
bin	84.596	0
bin	84.629333333333	0
bin	84.662666666667	0
bin	84.696	0
bin	84.729333333333	0
bin	84.762666666667	0
bin	84.796	0
bin	84.829333333333	0
bin	84.862666666667	0
bin	84.896	0
statistic RandomGeometricGraph.rgnv[483] 	arrivalPerc:histogram
field count 1
field mean 1
field stddev nan
field sum 1
field sqrsum 1
field min 1
field max 1
attr interpolationmode  none
attr source  count(arrival)
attr title  "arrival perc, histogram"
bin	-INF	0
bin	0	0
bin	1	1
bin	2	0
statistic RandomGeometricGraph.rgnv[484] 	arrivalTime:histogram
field count 1
field mean 177.244
field stddev nan
field sum 177.244
field sqrsum 31415.435536
field min 177.244
field max 177.244
attr interpolationmode  none
attr source  arrivalTime
attr title  "arrival time, histogram"
bin	-INF	0
bin	176.744	0
bin	176.77733333333	0
bin	176.81066666667	0
bin	176.844	0
bin	176.87733333333	0
bin	176.91066666667	0
bin	176.944	0
bin	176.97733333333	0
bin	177.01066666667	0
bin	177.044	0
bin	177.07733333333	0
bin	177.11066666667	0
bin	177.144	0
bin	177.17733333333	0
bin	177.21066666667	0
bin	177.244	1
bin	177.27733333333	0
bin	177.31066666667	0
bin	177.344	0
bin	177.37733333333	0
bin	177.41066666667	0
bin	177.444	0
bin	177.47733333333	0
bin	177.51066666667	0
bin	177.544	0
bin	177.57733333333	0
bin	177.61066666667	0
bin	177.644	0
bin	177.67733333333	0
bin	177.71066666667	0
bin	177.744	0
statistic RandomGeometricGraph.rgnv[484] 	arrivalPerc:histogram
field count 1
field mean 1
field stddev nan
field sum 1
field sqrsum 1
field min 1
field max 1
attr interpolationmode  none
attr source  count(arrival)
attr title  "arrival perc, histogram"
bin	-INF	0
bin	0	0
bin	1	1
bin	2	0
statistic RandomGeometricGraph.rgnv[485] 	arrivalTime:histogram
field count 1
field mean 196.716
field stddev nan
field sum 196.716
field sqrsum 38697.184656
field min 196.716
field max 196.716
attr interpolationmode  none
attr source  arrivalTime
attr title  "arrival time, histogram"
bin	-INF	0
bin	196.216	0
bin	196.24933333333	0
bin	196.28266666667	0
bin	196.316	0
bin	196.34933333333	0
bin	196.38266666667	0
bin	196.416	0
bin	196.44933333333	0
bin	196.48266666667	0
bin	196.516	0
bin	196.54933333333	0
bin	196.58266666667	0
bin	196.616	0
bin	196.64933333333	0
bin	196.68266666667	0
bin	196.716	1
bin	196.74933333333	0
bin	196.78266666667	0
bin	196.816	0
bin	196.84933333333	0
bin	196.88266666667	0
bin	196.916	0
bin	196.94933333333	0
bin	196.98266666667	0
bin	197.016	0
bin	197.04933333333	0
bin	197.08266666667	0
bin	197.116	0
bin	197.14933333333	0
bin	197.18266666667	0
bin	197.216	0
statistic RandomGeometricGraph.rgnv[485] 	arrivalPerc:histogram
field count 1
field mean 1
field stddev nan
field sum 1
field sqrsum 1
field min 1
field max 1
attr interpolationmode  none
attr source  count(arrival)
attr title  "arrival perc, histogram"
bin	-INF	0
bin	0	0
bin	1	1
bin	2	0
statistic RandomGeometricGraph.rgnv[486] 	arrivalTime:histogram
field count 1
field mean 49.944
field stddev nan
field sum 49.944
field sqrsum 2494.403136
field min 49.944
field max 49.944
attr interpolationmode  none
attr source  arrivalTime
attr title  "arrival time, histogram"
bin	-INF	0
bin	49.444	0
bin	49.477333333333	0
bin	49.510666666667	0
bin	49.544	0
bin	49.577333333333	0
bin	49.610666666667	0
bin	49.644	0
bin	49.677333333333	0
bin	49.710666666667	0
bin	49.744	0
bin	49.777333333333	0
bin	49.810666666667	0
bin	49.844	0
bin	49.877333333333	0
bin	49.910666666667	0
bin	49.944	1
bin	49.977333333333	0
bin	50.010666666667	0
bin	50.044	0
bin	50.077333333333	0
bin	50.110666666667	0
bin	50.144	0
bin	50.177333333333	0
bin	50.210666666667	0
bin	50.244	0
bin	50.277333333333	0
bin	50.310666666667	0
bin	50.344	0
bin	50.377333333333	0
bin	50.410666666667	0
bin	50.444	0
statistic RandomGeometricGraph.rgnv[486] 	arrivalPerc:histogram
field count 1
field mean 1
field stddev nan
field sum 1
field sqrsum 1
field min 1
field max 1
attr interpolationmode  none
attr source  count(arrival)
attr title  "arrival perc, histogram"
bin	-INF	0
bin	0	0
bin	1	1
bin	2	0
statistic RandomGeometricGraph.rgnv[487] 	arrivalTime:histogram
field count 1
field mean 243.439
field stddev nan
field sum 243.439
field sqrsum 59262.546721
field min 243.439
field max 243.439
attr interpolationmode  none
attr source  arrivalTime
attr title  "arrival time, histogram"
bin	-INF	0
bin	242.939	0
bin	242.97233333333	0
bin	243.00566666667	0
bin	243.039	0
bin	243.07233333333	0
bin	243.10566666667	0
bin	243.139	0
bin	243.17233333333	0
bin	243.20566666667	0
bin	243.239	0
bin	243.27233333333	0
bin	243.30566666667	0
bin	243.339	0
bin	243.37233333333	0
bin	243.40566666667	0
bin	243.439	1
bin	243.47233333333	0
bin	243.50566666667	0
bin	243.539	0
bin	243.57233333333	0
bin	243.60566666667	0
bin	243.639	0
bin	243.67233333333	0
bin	243.70566666667	0
bin	243.739	0
bin	243.77233333333	0
bin	243.80566666667	0
bin	243.839	0
bin	243.87233333333	0
bin	243.90566666667	0
bin	243.939	0
statistic RandomGeometricGraph.rgnv[487] 	arrivalPerc:histogram
field count 1
field mean 1
field stddev nan
field sum 1
field sqrsum 1
field min 1
field max 1
attr interpolationmode  none
attr source  count(arrival)
attr title  "arrival perc, histogram"
bin	-INF	0
bin	0	0
bin	1	1
bin	2	0
statistic RandomGeometricGraph.rgnv[488] 	arrivalTime:histogram
field count 1
field mean 116.109
field stddev nan
field sum 116.109
field sqrsum 13481.299881
field min 116.109
field max 116.109
attr interpolationmode  none
attr source  arrivalTime
attr title  "arrival time, histogram"
bin	-INF	0
bin	115.609	0
bin	115.64233333333	0
bin	115.67566666667	0
bin	115.709	0
bin	115.74233333333	0
bin	115.77566666667	0
bin	115.809	0
bin	115.84233333333	0
bin	115.87566666667	0
bin	115.909	0
bin	115.94233333333	0
bin	115.97566666667	0
bin	116.009	0
bin	116.04233333333	0
bin	116.07566666667	0
bin	116.109	1
bin	116.14233333333	0
bin	116.17566666667	0
bin	116.209	0
bin	116.24233333333	0
bin	116.27566666667	0
bin	116.309	0
bin	116.34233333333	0
bin	116.37566666667	0
bin	116.409	0
bin	116.44233333333	0
bin	116.47566666667	0
bin	116.509	0
bin	116.54233333333	0
bin	116.57566666667	0
bin	116.609	0
statistic RandomGeometricGraph.rgnv[488] 	arrivalPerc:histogram
field count 1
field mean 1
field stddev nan
field sum 1
field sqrsum 1
field min 1
field max 1
attr interpolationmode  none
attr source  count(arrival)
attr title  "arrival perc, histogram"
bin	-INF	0
bin	0	0
bin	1	1
bin	2	0
statistic RandomGeometricGraph.rgnv[489] 	arrivalTime:histogram
field count 1
field mean 267.891
field stddev nan
field sum 267.891
field sqrsum 71765.587881
field min 267.891
field max 267.891
attr interpolationmode  none
attr source  arrivalTime
attr title  "arrival time, histogram"
bin	-INF	0
bin	267.391	0
bin	267.42433333333	0
bin	267.45766666667	0
bin	267.491	0
bin	267.52433333333	0
bin	267.55766666667	0
bin	267.591	0
bin	267.62433333333	0
bin	267.65766666667	0
bin	267.691	0
bin	267.72433333333	0
bin	267.75766666667	0
bin	267.791	0
bin	267.82433333333	0
bin	267.85766666667	0
bin	267.891	1
bin	267.92433333333	0
bin	267.95766666667	0
bin	267.991	0
bin	268.02433333333	0
bin	268.05766666667	0
bin	268.091	0
bin	268.12433333333	0
bin	268.15766666667	0
bin	268.191	0
bin	268.22433333333	0
bin	268.25766666667	0
bin	268.291	0
bin	268.32433333333	0
bin	268.35766666667	0
bin	268.391	0
statistic RandomGeometricGraph.rgnv[489] 	arrivalPerc:histogram
field count 1
field mean 1
field stddev nan
field sum 1
field sqrsum 1
field min 1
field max 1
attr interpolationmode  none
attr source  count(arrival)
attr title  "arrival perc, histogram"
bin	-INF	0
bin	0	0
bin	1	1
bin	2	0
statistic RandomGeometricGraph.rgnv[490] 	arrivalTime:histogram
field count 1
field mean 79.396
field stddev nan
field sum 79.396
field sqrsum 6303.724816
field min 79.396
field max 79.396
attr interpolationmode  none
attr source  arrivalTime
attr title  "arrival time, histogram"
bin	-INF	0
bin	78.896	0
bin	78.929333333333	0
bin	78.962666666667	0
bin	78.996	0
bin	79.029333333333	0
bin	79.062666666667	0
bin	79.096	0
bin	79.129333333333	0
bin	79.162666666667	0
bin	79.196	0
bin	79.229333333333	0
bin	79.262666666667	0
bin	79.296	0
bin	79.329333333333	0
bin	79.362666666667	0
bin	79.396	1
bin	79.429333333333	0
bin	79.462666666667	0
bin	79.496	0
bin	79.529333333333	0
bin	79.562666666667	0
bin	79.596	0
bin	79.629333333333	0
bin	79.662666666667	0
bin	79.696	0
bin	79.729333333333	0
bin	79.762666666667	0
bin	79.796	0
bin	79.829333333333	0
bin	79.862666666667	0
bin	79.896	0
statistic RandomGeometricGraph.rgnv[490] 	arrivalPerc:histogram
field count 1
field mean 1
field stddev nan
field sum 1
field sqrsum 1
field min 1
field max 1
attr interpolationmode  none
attr source  count(arrival)
attr title  "arrival perc, histogram"
bin	-INF	0
bin	0	0
bin	1	1
bin	2	0
statistic RandomGeometricGraph.rgnv[491] 	arrivalTime:histogram
field count 1
field mean 206.716
field stddev nan
field sum 206.716
field sqrsum 42731.504656
field min 206.716
field max 206.716
attr interpolationmode  none
attr source  arrivalTime
attr title  "arrival time, histogram"
bin	-INF	0
bin	206.216	0
bin	206.24933333333	0
bin	206.28266666667	0
bin	206.316	0
bin	206.34933333333	0
bin	206.38266666667	0
bin	206.416	0
bin	206.44933333333	0
bin	206.48266666667	0
bin	206.516	0
bin	206.54933333333	0
bin	206.58266666667	0
bin	206.616	0
bin	206.64933333333	0
bin	206.68266666667	0
bin	206.716	1
bin	206.74933333333	0
bin	206.78266666667	0
bin	206.816	0
bin	206.84933333333	0
bin	206.88266666667	0
bin	206.916	0
bin	206.94933333333	0
bin	206.98266666667	0
bin	207.016	0
bin	207.04933333333	0
bin	207.08266666667	0
bin	207.116	0
bin	207.14933333333	0
bin	207.18266666667	0
bin	207.216	0
statistic RandomGeometricGraph.rgnv[491] 	arrivalPerc:histogram
field count 1
field mean 1
field stddev nan
field sum 1
field sqrsum 1
field min 1
field max 1
attr interpolationmode  none
attr source  count(arrival)
attr title  "arrival perc, histogram"
bin	-INF	0
bin	0	0
bin	1	1
bin	2	0
statistic RandomGeometricGraph.rgnv[492] 	arrivalTime:histogram
field count 1
field mean 267.861
field stddev nan
field sum 267.861
field sqrsum 71749.515321
field min 267.861
field max 267.861
attr interpolationmode  none
attr source  arrivalTime
attr title  "arrival time, histogram"
bin	-INF	0
bin	267.361	0
bin	267.39433333333	0
bin	267.42766666667	0
bin	267.461	0
bin	267.49433333333	0
bin	267.52766666667	0
bin	267.561	0
bin	267.59433333333	0
bin	267.62766666667	0
bin	267.661	0
bin	267.69433333333	0
bin	267.72766666667	0
bin	267.761	0
bin	267.79433333333	0
bin	267.82766666667	0
bin	267.861	1
bin	267.89433333333	0
bin	267.92766666667	0
bin	267.961	0
bin	267.99433333333	0
bin	268.02766666667	0
bin	268.061	0
bin	268.09433333333	0
bin	268.12766666667	0
bin	268.161	0
bin	268.19433333333	0
bin	268.22766666667	0
bin	268.261	0
bin	268.29433333333	0
bin	268.32766666667	0
bin	268.361	0
statistic RandomGeometricGraph.rgnv[492] 	arrivalPerc:histogram
field count 1
field mean 1
field stddev nan
field sum 1
field sqrsum 1
field min 1
field max 1
attr interpolationmode  none
attr source  count(arrival)
attr title  "arrival perc, histogram"
bin	-INF	0
bin	0	0
bin	1	1
bin	2	0
statistic RandomGeometricGraph.rgnv[493] 	arrivalTime:histogram
field count 1
field mean 62.155
field stddev nan
field sum 62.155
field sqrsum 3863.244025
field min 62.155
field max 62.155
attr interpolationmode  none
attr source  arrivalTime
attr title  "arrival time, histogram"
bin	-INF	0
bin	61.655	0
bin	61.688333333333	0
bin	61.721666666667	0
bin	61.755	0
bin	61.788333333333	0
bin	61.821666666667	0
bin	61.855	0
bin	61.888333333333	0
bin	61.921666666667	0
bin	61.955	0
bin	61.988333333333	0
bin	62.021666666667	0
bin	62.055	0
bin	62.088333333333	0
bin	62.121666666667	0
bin	62.155	1
bin	62.188333333333	0
bin	62.221666666667	0
bin	62.255	0
bin	62.288333333333	0
bin	62.321666666667	0
bin	62.355	0
bin	62.388333333333	0
bin	62.421666666667	0
bin	62.455	0
bin	62.488333333333	0
bin	62.521666666667	0
bin	62.555	0
bin	62.588333333333	0
bin	62.621666666667	0
bin	62.655	0
statistic RandomGeometricGraph.rgnv[493] 	arrivalPerc:histogram
field count 1
field mean 1
field stddev nan
field sum 1
field sqrsum 1
field min 1
field max 1
attr interpolationmode  none
attr source  count(arrival)
attr title  "arrival perc, histogram"
bin	-INF	0
bin	0	0
bin	1	1
bin	2	0
statistic RandomGeometricGraph.rgnv[494] 	arrivalTime:histogram
field count 1
field mean 84.416
field stddev nan
field sum 84.416
field sqrsum 7126.061056
field min 84.416
field max 84.416
attr interpolationmode  none
attr source  arrivalTime
attr title  "arrival time, histogram"
bin	-INF	0
bin	83.916	0
bin	83.949333333333	0
bin	83.982666666667	0
bin	84.016	0
bin	84.049333333333	0
bin	84.082666666667	0
bin	84.116	0
bin	84.149333333333	0
bin	84.182666666667	0
bin	84.216	0
bin	84.249333333333	0
bin	84.282666666667	0
bin	84.316	0
bin	84.349333333333	0
bin	84.382666666667	0
bin	84.416	1
bin	84.449333333333	0
bin	84.482666666667	0
bin	84.516	0
bin	84.549333333333	0
bin	84.582666666667	0
bin	84.616	0
bin	84.649333333333	0
bin	84.682666666667	0
bin	84.716	0
bin	84.749333333333	0
bin	84.782666666667	0
bin	84.816	0
bin	84.849333333333	0
bin	84.882666666667	0
bin	84.916	0
statistic RandomGeometricGraph.rgnv[494] 	arrivalPerc:histogram
field count 1
field mean 1
field stddev nan
field sum 1
field sqrsum 1
field min 1
field max 1
attr interpolationmode  none
attr source  count(arrival)
attr title  "arrival perc, histogram"
bin	-INF	0
bin	0	0
bin	1	1
bin	2	0
statistic RandomGeometricGraph.rgnv[495] 	arrivalTime:histogram
field count 1
field mean 147.802
field stddev nan
field sum 147.802
field sqrsum 21845.431204
field min 147.802
field max 147.802
attr interpolationmode  none
attr source  arrivalTime
attr title  "arrival time, histogram"
bin	-INF	0
bin	147.302	0
bin	147.33533333333	0
bin	147.36866666667	0
bin	147.402	0
bin	147.43533333333	0
bin	147.46866666667	0
bin	147.502	0
bin	147.53533333333	0
bin	147.56866666667	0
bin	147.602	0
bin	147.63533333333	0
bin	147.66866666667	0
bin	147.702	0
bin	147.73533333333	0
bin	147.76866666667	0
bin	147.802	1
bin	147.83533333333	0
bin	147.86866666667	0
bin	147.902	0
bin	147.93533333333	0
bin	147.96866666667	0
bin	148.002	0
bin	148.03533333333	0
bin	148.06866666667	0
bin	148.102	0
bin	148.13533333333	0
bin	148.16866666667	0
bin	148.202	0
bin	148.23533333333	0
bin	148.26866666667	0
bin	148.302	0
statistic RandomGeometricGraph.rgnv[495] 	arrivalPerc:histogram
field count 1
field mean 1
field stddev nan
field sum 1
field sqrsum 1
field min 1
field max 1
attr interpolationmode  none
attr source  count(arrival)
attr title  "arrival perc, histogram"
bin	-INF	0
bin	0	0
bin	1	1
bin	2	0
statistic RandomGeometricGraph.rgnv[496] 	arrivalTime:histogram
field count 1
field mean 255.67
field stddev nan
field sum 255.67
field sqrsum 65367.1489
field min 255.67
field max 255.67
attr interpolationmode  none
attr source  arrivalTime
attr title  "arrival time, histogram"
bin	-INF	0
bin	255.17	0
bin	255.20333333333	0
bin	255.23666666667	0
bin	255.27	0
bin	255.30333333333	0
bin	255.33666666667	0
bin	255.37	0
bin	255.40333333333	0
bin	255.43666666667	0
bin	255.47	0
bin	255.50333333333	0
bin	255.53666666667	0
bin	255.57	0
bin	255.60333333333	0
bin	255.63666666667	0
bin	255.67	1
bin	255.70333333333	0
bin	255.73666666667	0
bin	255.77	0
bin	255.80333333333	0
bin	255.83666666667	0
bin	255.87	0
bin	255.90333333333	0
bin	255.93666666667	0
bin	255.97	0
bin	256.00333333333	0
bin	256.03666666667	0
bin	256.07	0
bin	256.10333333333	0
bin	256.13666666667	0
bin	256.17	0
statistic RandomGeometricGraph.rgnv[496] 	arrivalPerc:histogram
field count 1
field mean 1
field stddev nan
field sum 1
field sqrsum 1
field min 1
field max 1
attr interpolationmode  none
attr source  count(arrival)
attr title  "arrival perc, histogram"
bin	-INF	0
bin	0	0
bin	1	1
bin	2	0
statistic RandomGeometricGraph.rgnv[497] 	arrivalTime:histogram
field count 1
field mean 162.792
field stddev nan
field sum 162.792
field sqrsum 26501.235264
field min 162.792
field max 162.792
attr interpolationmode  none
attr source  arrivalTime
attr title  "arrival time, histogram"
bin	-INF	0
bin	162.292	0
bin	162.32533333333	0
bin	162.35866666667	0
bin	162.392	0
bin	162.42533333333	0
bin	162.45866666667	0
bin	162.492	0
bin	162.52533333333	0
bin	162.55866666667	0
bin	162.592	0
bin	162.62533333333	0
bin	162.65866666667	0
bin	162.692	0
bin	162.72533333333	0
bin	162.75866666667	0
bin	162.792	1
bin	162.82533333333	0
bin	162.85866666667	0
bin	162.892	0
bin	162.92533333333	0
bin	162.95866666667	0
bin	162.992	0
bin	163.02533333333	0
bin	163.05866666667	0
bin	163.092	0
bin	163.12533333333	0
bin	163.15866666667	0
bin	163.192	0
bin	163.22533333333	0
bin	163.25866666667	0
bin	163.292	0
statistic RandomGeometricGraph.rgnv[497] 	arrivalPerc:histogram
field count 1
field mean 1
field stddev nan
field sum 1
field sqrsum 1
field min 1
field max 1
attr interpolationmode  none
attr source  count(arrival)
attr title  "arrival perc, histogram"
bin	-INF	0
bin	0	0
bin	1	1
bin	2	0
statistic RandomGeometricGraph.rgnv[498] 	arrivalTime:histogram
field count 1
field mean 267.901
field stddev nan
field sum 267.901
field sqrsum 71770.945801
field min 267.901
field max 267.901
attr interpolationmode  none
attr source  arrivalTime
attr title  "arrival time, histogram"
bin	-INF	0
bin	267.401	0
bin	267.43433333333	0
bin	267.46766666667	0
bin	267.501	0
bin	267.53433333333	0
bin	267.56766666667	0
bin	267.601	0
bin	267.63433333333	0
bin	267.66766666667	0
bin	267.701	0
bin	267.73433333333	0
bin	267.76766666667	0
bin	267.801	0
bin	267.83433333333	0
bin	267.86766666667	0
bin	267.901	1
bin	267.93433333333	0
bin	267.96766666667	0
bin	268.001	0
bin	268.03433333333	0
bin	268.06766666667	0
bin	268.101	0
bin	268.13433333333	0
bin	268.16766666667	0
bin	268.201	0
bin	268.23433333333	0
bin	268.26766666667	0
bin	268.301	0
bin	268.33433333333	0
bin	268.36766666667	0
bin	268.401	0
statistic RandomGeometricGraph.rgnv[498] 	arrivalPerc:histogram
field count 1
field mean 1
field stddev nan
field sum 1
field sqrsum 1
field min 1
field max 1
attr interpolationmode  none
attr source  count(arrival)
attr title  "arrival perc, histogram"
bin	-INF	0
bin	0	0
bin	1	1
bin	2	0
statistic RandomGeometricGraph.rgnv[499] 	arrivalTime:histogram
field count 1
field mean 98.878
field stddev nan
field sum 98.878
field sqrsum 9776.858884
field min 98.878
field max 98.878
attr interpolationmode  none
attr source  arrivalTime
attr title  "arrival time, histogram"
bin	-INF	0
bin	98.378	0
bin	98.411333333333	0
bin	98.444666666667	0
bin	98.478	0
bin	98.511333333333	0
bin	98.544666666667	0
bin	98.578	0
bin	98.611333333333	0
bin	98.644666666667	0
bin	98.678	0
bin	98.711333333333	0
bin	98.744666666667	0
bin	98.778	0
bin	98.811333333333	0
bin	98.844666666667	0
bin	98.878	1
bin	98.911333333333	0
bin	98.944666666667	0
bin	98.978	0
bin	99.011333333333	0
bin	99.044666666667	0
bin	99.078	0
bin	99.111333333333	0
bin	99.144666666667	0
bin	99.178	0
bin	99.211333333333	0
bin	99.244666666667	0
bin	99.278	0
bin	99.311333333333	0
bin	99.344666666667	0
bin	99.378	0
statistic RandomGeometricGraph.rgnv[499] 	arrivalPerc:histogram
field count 1
field mean 1
field stddev nan
field sum 1
field sqrsum 1
field min 1
field max 1
attr interpolationmode  none
attr source  count(arrival)
attr title  "arrival perc, histogram"
bin	-INF	0
bin	0	0
bin	1	1
bin	2	0
