version 2
run rgg500-18-20170110-15:46:24-11008
attr configname rgg500
attr datetime 20170110-15:46:24
attr experiment rgg500
attr inifile iniFile/D002/omnetpp_15D002.ini
attr iterationvars ""
attr iterationvars2 $repetition=18
attr measurement ""
attr network blegossipprj.net.randomgeometricgraph.RandomGeometricGraph
attr processid 11008
attr repetition 18
attr replication #18
attr resultdir ../../results/D002/r15D002
attr runnumber 18
attr seedset 18
param RandomGeometricGraph.netSize 500
param RandomGeometricGraph.radius 15
param RandomGeometricGraph.rgnv[*].areaLength 158
param RandomGeometricGraph.rgnv[*].areaWidth 158

statistic RandomGeometricGraph.sc 	arrivalPercentage
field count 499
field mean 1
field stddev 0
field sum 499
field sqrsum 499
field min 1
field max 1
attr type  int
bin	-INF	0
bin	0	0
bin	1	499
bin	2	0
statistic RandomGeometricGraph.sc 	arrivalTime
field count 499
field mean 132.42526653307
field stddev 39.968902353761
field sum 66080.208
field sqrsum 9546250.708332
field min 0
field max 241.208
bin	-INF	0
bin	-49.434	0
bin	-42.8428	0
bin	-36.2516	0
bin	-29.6604	0
bin	-23.0692	0
bin	-16.478	0
bin	-9.8868	0
bin	-3.2956	1
bin	3.2956	0
bin	9.8868	1
bin	16.478	0
bin	23.0692	2
bin	29.6604	0
bin	36.2516	4
bin	42.8428	0
bin	49.434	8
bin	56.0252	7
bin	62.6164	6
bin	69.2076	11
bin	75.7988	8
bin	82.39	19
bin	88.9812	16
bin	95.5724	28
bin	102.1636	16
bin	108.7548	36
bin	115.346	32
bin	121.9372	41
bin	128.5284	22
bin	135.1196	47
bin	141.7108	34
bin	148.302	160
statistic RandomGeometricGraph.rgnv[0] 	arrivalTime:histogram
field count 1
field mean 157.772
field stddev nan
field sum 157.772
field sqrsum 24892.003984
field min 157.772
field max 157.772
attr interpolationmode  none
attr source  arrivalTime
attr title  "arrival time, histogram"
bin	-INF	0
bin	157.272	0
bin	157.30533333333	0
bin	157.33866666667	0
bin	157.372	0
bin	157.40533333333	0
bin	157.43866666667	0
bin	157.472	0
bin	157.50533333333	0
bin	157.53866666667	0
bin	157.572	0
bin	157.60533333333	0
bin	157.63866666667	0
bin	157.672	0
bin	157.70533333333	0
bin	157.73866666667	0
bin	157.772	1
bin	157.80533333333	0
bin	157.83866666667	0
bin	157.872	0
bin	157.90533333333	0
bin	157.93866666667	0
bin	157.972	0
bin	158.00533333333	0
bin	158.03866666667	0
bin	158.072	0
bin	158.10533333333	0
bin	158.13866666667	0
bin	158.172	0
bin	158.20533333333	0
bin	158.23866666667	0
bin	158.272	0
statistic RandomGeometricGraph.rgnv[0] 	arrivalPerc:histogram
field count 1
field mean 1
field stddev nan
field sum 1
field sqrsum 1
field min 1
field max 1
attr interpolationmode  none
attr source  count(arrival)
attr title  "arrival perc, histogram"
bin	-INF	0
bin	0	0
bin	1	1
bin	2	0
statistic RandomGeometricGraph.rgnv[1] 	arrivalTime:histogram
field count 1
field mean 103.868
field stddev nan
field sum 103.868
field sqrsum 10788.561424
field min 103.868
field max 103.868
attr interpolationmode  none
attr source  arrivalTime
attr title  "arrival time, histogram"
bin	-INF	0
bin	103.368	0
bin	103.40133333333	0
bin	103.43466666667	0
bin	103.468	0
bin	103.50133333333	0
bin	103.53466666667	0
bin	103.568	0
bin	103.60133333333	0
bin	103.63466666667	0
bin	103.668	0
bin	103.70133333333	0
bin	103.73466666667	0
bin	103.768	0
bin	103.80133333333	0
bin	103.83466666667	0
bin	103.868	1
bin	103.90133333333	0
bin	103.93466666667	0
bin	103.968	0
bin	104.00133333333	0
bin	104.03466666667	0
bin	104.068	0
bin	104.10133333333	0
bin	104.13466666667	0
bin	104.168	0
bin	104.20133333333	0
bin	104.23466666667	0
bin	104.268	0
bin	104.30133333333	0
bin	104.33466666667	0
bin	104.368	0
statistic RandomGeometricGraph.rgnv[1] 	arrivalPerc:histogram
field count 1
field mean 1
field stddev nan
field sum 1
field sqrsum 1
field min 1
field max 1
attr interpolationmode  none
attr source  count(arrival)
attr title  "arrival perc, histogram"
bin	-INF	0
bin	0	0
bin	1	1
bin	2	0
statistic RandomGeometricGraph.rgnv[2] 	arrivalTime:histogram
field count 1
field mean 187.274
field stddev nan
field sum 187.274
field sqrsum 35071.551076
field min 187.274
field max 187.274
attr interpolationmode  none
attr source  arrivalTime
attr title  "arrival time, histogram"
bin	-INF	0
bin	186.774	0
bin	186.80733333333	0
bin	186.84066666667	0
bin	186.874	0
bin	186.90733333333	0
bin	186.94066666667	0
bin	186.974	0
bin	187.00733333333	0
bin	187.04066666667	0
bin	187.074	0
bin	187.10733333333	0
bin	187.14066666667	0
bin	187.174	0
bin	187.20733333333	0
bin	187.24066666667	0
bin	187.274	1
bin	187.30733333333	0
bin	187.34066666667	0
bin	187.374	0
bin	187.40733333333	0
bin	187.44066666667	0
bin	187.474	0
bin	187.50733333333	0
bin	187.54066666667	0
bin	187.574	0
bin	187.60733333333	0
bin	187.64066666667	0
bin	187.674	0
bin	187.70733333333	0
bin	187.74066666667	0
bin	187.774	0
statistic RandomGeometricGraph.rgnv[2] 	arrivalPerc:histogram
field count 1
field mean 1
field stddev nan
field sum 1
field sqrsum 1
field min 1
field max 1
attr interpolationmode  none
attr source  count(arrival)
attr title  "arrival perc, histogram"
bin	-INF	0
bin	0	0
bin	1	1
bin	2	0
statistic RandomGeometricGraph.rgnv[3] 	arrivalTime:histogram
field count 1
field mean 182.264
field stddev nan
field sum 182.264
field sqrsum 33220.165696
field min 182.264
field max 182.264
attr interpolationmode  none
attr source  arrivalTime
attr title  "arrival time, histogram"
bin	-INF	0
bin	181.764	0
bin	181.79733333333	0
bin	181.83066666667	0
bin	181.864	0
bin	181.89733333333	0
bin	181.93066666667	0
bin	181.964	0
bin	181.99733333333	0
bin	182.03066666667	0
bin	182.064	0
bin	182.09733333333	0
bin	182.13066666667	0
bin	182.164	0
bin	182.19733333333	0
bin	182.23066666667	0
bin	182.264	1
bin	182.29733333333	0
bin	182.33066666667	0
bin	182.364	0
bin	182.39733333333	0
bin	182.43066666667	0
bin	182.464	0
bin	182.49733333333	0
bin	182.53066666667	0
bin	182.564	0
bin	182.59733333333	0
bin	182.63066666667	0
bin	182.664	0
bin	182.69733333333	0
bin	182.73066666667	0
bin	182.764	0
statistic RandomGeometricGraph.rgnv[3] 	arrivalPerc:histogram
field count 1
field mean 1
field stddev nan
field sum 1
field sqrsum 1
field min 1
field max 1
attr interpolationmode  none
attr source  count(arrival)
attr title  "arrival perc, histogram"
bin	-INF	0
bin	0	0
bin	1	1
bin	2	0
statistic RandomGeometricGraph.rgnv[4] 	arrivalTime:histogram
field count 1
field mean 116.109
field stddev nan
field sum 116.109
field sqrsum 13481.299881
field min 116.109
field max 116.109
attr interpolationmode  none
attr source  arrivalTime
attr title  "arrival time, histogram"
bin	-INF	0
bin	115.609	0
bin	115.64233333333	0
bin	115.67566666667	0
bin	115.709	0
bin	115.74233333333	0
bin	115.77566666667	0
bin	115.809	0
bin	115.84233333333	0
bin	115.87566666667	0
bin	115.909	0
bin	115.94233333333	0
bin	115.97566666667	0
bin	116.009	0
bin	116.04233333333	0
bin	116.07566666667	0
bin	116.109	1
bin	116.14233333333	0
bin	116.17566666667	0
bin	116.209	0
bin	116.24233333333	0
bin	116.27566666667	0
bin	116.309	0
bin	116.34233333333	0
bin	116.37566666667	0
bin	116.409	0
bin	116.44233333333	0
bin	116.47566666667	0
bin	116.509	0
bin	116.54233333333	0
bin	116.57566666667	0
bin	116.609	0
statistic RandomGeometricGraph.rgnv[4] 	arrivalPerc:histogram
field count 1
field mean 1
field stddev nan
field sum 1
field sqrsum 1
field min 1
field max 1
attr interpolationmode  none
attr source  count(arrival)
attr title  "arrival perc, histogram"
bin	-INF	0
bin	0	0
bin	1	1
bin	2	0
statistic RandomGeometricGraph.rgnv[5] 	arrivalTime:histogram
field count 1
field mean 147.792
field stddev nan
field sum 147.792
field sqrsum 21842.475264
field min 147.792
field max 147.792
attr interpolationmode  none
attr source  arrivalTime
attr title  "arrival time, histogram"
bin	-INF	0
bin	147.292	0
bin	147.32533333333	0
bin	147.35866666667	0
bin	147.392	0
bin	147.42533333333	0
bin	147.45866666667	0
bin	147.492	0
bin	147.52533333333	0
bin	147.55866666667	0
bin	147.592	0
bin	147.62533333333	0
bin	147.65866666667	0
bin	147.692	0
bin	147.72533333333	0
bin	147.75866666667	0
bin	147.792	1
bin	147.82533333333	0
bin	147.85866666667	0
bin	147.892	0
bin	147.92533333333	0
bin	147.95866666667	0
bin	147.992	0
bin	148.02533333333	0
bin	148.05866666667	0
bin	148.092	0
bin	148.12533333333	0
bin	148.15866666667	0
bin	148.192	0
bin	148.22533333333	0
bin	148.25866666667	0
bin	148.292	0
statistic RandomGeometricGraph.rgnv[5] 	arrivalPerc:histogram
field count 1
field mean 1
field stddev nan
field sum 1
field sqrsum 1
field min 1
field max 1
attr interpolationmode  none
attr source  count(arrival)
attr title  "arrival perc, histogram"
bin	-INF	0
bin	0	0
bin	1	1
bin	2	0
statistic RandomGeometricGraph.rgnv[6] 	arrivalTime:histogram
field count 1
field mean 135.561
field stddev nan
field sum 135.561
field sqrsum 18376.784721
field min 135.561
field max 135.561
attr interpolationmode  none
attr source  arrivalTime
attr title  "arrival time, histogram"
bin	-INF	0
bin	135.061	0
bin	135.09433333333	0
bin	135.12766666667	0
bin	135.161	0
bin	135.19433333333	0
bin	135.22766666667	0
bin	135.261	0
bin	135.29433333333	0
bin	135.32766666667	0
bin	135.361	0
bin	135.39433333333	0
bin	135.42766666667	0
bin	135.461	0
bin	135.49433333333	0
bin	135.52766666667	0
bin	135.561	1
bin	135.59433333333	0
bin	135.62766666667	0
bin	135.661	0
bin	135.69433333333	0
bin	135.72766666667	0
bin	135.761	0
bin	135.79433333333	0
bin	135.82766666667	0
bin	135.861	0
bin	135.89433333333	0
bin	135.92766666667	0
bin	135.961	0
bin	135.99433333333	0
bin	136.02766666667	0
bin	136.061	0
statistic RandomGeometricGraph.rgnv[6] 	arrivalPerc:histogram
field count 1
field mean 1
field stddev nan
field sum 1
field sqrsum 1
field min 1
field max 1
attr interpolationmode  none
attr source  count(arrival)
attr title  "arrival perc, histogram"
bin	-INF	0
bin	0	0
bin	1	1
bin	2	0
statistic RandomGeometricGraph.rgnv[7] 	arrivalTime:histogram
field count 1
field mean 126.119
field stddev nan
field sum 126.119
field sqrsum 15906.002161
field min 126.119
field max 126.119
attr interpolationmode  none
attr source  arrivalTime
attr title  "arrival time, histogram"
bin	-INF	0
bin	125.619	0
bin	125.65233333333	0
bin	125.68566666667	0
bin	125.719	0
bin	125.75233333333	0
bin	125.78566666667	0
bin	125.819	0
bin	125.85233333333	0
bin	125.88566666667	0
bin	125.919	0
bin	125.95233333333	0
bin	125.98566666667	0
bin	126.019	0
bin	126.05233333333	0
bin	126.08566666667	0
bin	126.119	1
bin	126.15233333333	0
bin	126.18566666667	0
bin	126.219	0
bin	126.25233333333	0
bin	126.28566666667	0
bin	126.319	0
bin	126.35233333333	0
bin	126.38566666667	0
bin	126.419	0
bin	126.45233333333	0
bin	126.48566666667	0
bin	126.519	0
bin	126.55233333333	0
bin	126.58566666667	0
bin	126.619	0
statistic RandomGeometricGraph.rgnv[7] 	arrivalPerc:histogram
field count 1
field mean 1
field stddev nan
field sum 1
field sqrsum 1
field min 1
field max 1
attr interpolationmode  none
attr source  count(arrival)
attr title  "arrival perc, histogram"
bin	-INF	0
bin	0	0
bin	1	1
bin	2	0
statistic RandomGeometricGraph.rgnv[8] 	arrivalTime:histogram
field count 1
field mean 194.495
field stddev nan
field sum 194.495
field sqrsum 37828.305025
field min 194.495
field max 194.495
attr interpolationmode  none
attr source  arrivalTime
attr title  "arrival time, histogram"
bin	-INF	0
bin	193.995	0
bin	194.02833333333	0
bin	194.06166666667	0
bin	194.095	0
bin	194.12833333333	0
bin	194.16166666667	0
bin	194.195	0
bin	194.22833333333	0
bin	194.26166666667	0
bin	194.295	0
bin	194.32833333333	0
bin	194.36166666667	0
bin	194.395	0
bin	194.42833333333	0
bin	194.46166666667	0
bin	194.495	1
bin	194.52833333333	0
bin	194.56166666667	0
bin	194.595	0
bin	194.62833333333	0
bin	194.66166666667	0
bin	194.695	0
bin	194.72833333333	0
bin	194.76166666667	0
bin	194.795	0
bin	194.82833333333	0
bin	194.86166666667	0
bin	194.895	0
bin	194.92833333333	0
bin	194.96166666667	0
bin	194.995	0
statistic RandomGeometricGraph.rgnv[8] 	arrivalPerc:histogram
field count 1
field mean 1
field stddev nan
field sum 1
field sqrsum 1
field min 1
field max 1
attr interpolationmode  none
attr source  count(arrival)
attr title  "arrival perc, histogram"
bin	-INF	0
bin	0	0
bin	1	1
bin	2	0
statistic RandomGeometricGraph.rgnv[9] 	arrivalTime:histogram
field count 1
field mean 160.033
field stddev nan
field sum 160.033
field sqrsum 25610.561089
field min 160.033
field max 160.033
attr interpolationmode  none
attr source  arrivalTime
attr title  "arrival time, histogram"
bin	-INF	0
bin	159.533	0
bin	159.56633333333	0
bin	159.59966666667	0
bin	159.633	0
bin	159.66633333333	0
bin	159.69966666667	0
bin	159.733	0
bin	159.76633333333	0
bin	159.79966666667	0
bin	159.833	0
bin	159.86633333333	0
bin	159.89966666667	0
bin	159.933	0
bin	159.96633333333	0
bin	159.99966666667	0
bin	160.033	1
bin	160.06633333333	0
bin	160.09966666667	0
bin	160.133	0
bin	160.16633333333	0
bin	160.19966666667	0
bin	160.233	0
bin	160.26633333333	0
bin	160.29966666667	0
bin	160.333	0
bin	160.36633333333	0
bin	160.39966666667	0
bin	160.433	0
bin	160.46633333333	0
bin	160.49966666667	0
bin	160.533	0
statistic RandomGeometricGraph.rgnv[9] 	arrivalPerc:histogram
field count 1
field mean 1
field stddev nan
field sum 1
field sqrsum 1
field min 1
field max 1
attr interpolationmode  none
attr source  count(arrival)
attr title  "arrival perc, histogram"
bin	-INF	0
bin	0	0
bin	1	1
bin	2	0
statistic RandomGeometricGraph.rgnv[10] 	arrivalTime:histogram
field count 1
field mean 121.109
field stddev nan
field sum 121.109
field sqrsum 14667.389881
field min 121.109
field max 121.109
attr interpolationmode  none
attr source  arrivalTime
attr title  "arrival time, histogram"
bin	-INF	0
bin	120.609	0
bin	120.64233333333	0
bin	120.67566666667	0
bin	120.709	0
bin	120.74233333333	0
bin	120.77566666667	0
bin	120.809	0
bin	120.84233333333	0
bin	120.87566666667	0
bin	120.909	0
bin	120.94233333333	0
bin	120.97566666667	0
bin	121.009	0
bin	121.04233333333	0
bin	121.07566666667	0
bin	121.109	1
bin	121.14233333333	0
bin	121.17566666667	0
bin	121.209	0
bin	121.24233333333	0
bin	121.27566666667	0
bin	121.309	0
bin	121.34233333333	0
bin	121.37566666667	0
bin	121.409	0
bin	121.44233333333	0
bin	121.47566666667	0
bin	121.509	0
bin	121.54233333333	0
bin	121.57566666667	0
bin	121.609	0
statistic RandomGeometricGraph.rgnv[10] 	arrivalPerc:histogram
field count 1
field mean 1
field stddev nan
field sum 1
field sqrsum 1
field min 1
field max 1
attr interpolationmode  none
attr source  count(arrival)
attr title  "arrival perc, histogram"
bin	-INF	0
bin	0	0
bin	1	1
bin	2	0
statistic RandomGeometricGraph.rgnv[11] 	arrivalTime:histogram
field count 1
field mean 113.878
field stddev nan
field sum 113.878
field sqrsum 12968.198884
field min 113.878
field max 113.878
attr interpolationmode  none
attr source  arrivalTime
attr title  "arrival time, histogram"
bin	-INF	0
bin	113.378	0
bin	113.41133333333	0
bin	113.44466666667	0
bin	113.478	0
bin	113.51133333333	0
bin	113.54466666667	0
bin	113.578	0
bin	113.61133333333	0
bin	113.64466666667	0
bin	113.678	0
bin	113.71133333333	0
bin	113.74466666667	0
bin	113.778	0
bin	113.81133333333	0
bin	113.84466666667	0
bin	113.878	1
bin	113.91133333333	0
bin	113.94466666667	0
bin	113.978	0
bin	114.01133333333	0
bin	114.04466666667	0
bin	114.078	0
bin	114.11133333333	0
bin	114.14466666667	0
bin	114.178	0
bin	114.21133333333	0
bin	114.24466666667	0
bin	114.278	0
bin	114.31133333333	0
bin	114.34466666667	0
bin	114.378	0
statistic RandomGeometricGraph.rgnv[11] 	arrivalPerc:histogram
field count 1
field mean 1
field stddev nan
field sum 1
field sqrsum 1
field min 1
field max 1
attr interpolationmode  none
attr source  count(arrival)
attr title  "arrival perc, histogram"
bin	-INF	0
bin	0	0
bin	1	1
bin	2	0
statistic RandomGeometricGraph.rgnv[12] 	arrivalTime:histogram
field count 1
field mean 147.802
field stddev nan
field sum 147.802
field sqrsum 21845.431204
field min 147.802
field max 147.802
attr interpolationmode  none
attr source  arrivalTime
attr title  "arrival time, histogram"
bin	-INF	0
bin	147.302	0
bin	147.33533333333	0
bin	147.36866666667	0
bin	147.402	0
bin	147.43533333333	0
bin	147.46866666667	0
bin	147.502	0
bin	147.53533333333	0
bin	147.56866666667	0
bin	147.602	0
bin	147.63533333333	0
bin	147.66866666667	0
bin	147.702	0
bin	147.73533333333	0
bin	147.76866666667	0
bin	147.802	1
bin	147.83533333333	0
bin	147.86866666667	0
bin	147.902	0
bin	147.93533333333	0
bin	147.96866666667	0
bin	148.002	0
bin	148.03533333333	0
bin	148.06866666667	0
bin	148.102	0
bin	148.13533333333	0
bin	148.16866666667	0
bin	148.202	0
bin	148.23533333333	0
bin	148.26866666667	0
bin	148.302	0
statistic RandomGeometricGraph.rgnv[12] 	arrivalPerc:histogram
field count 1
field mean 1
field stddev nan
field sum 1
field sqrsum 1
field min 1
field max 1
attr interpolationmode  none
attr source  count(arrival)
attr title  "arrival perc, histogram"
bin	-INF	0
bin	0	0
bin	1	1
bin	2	0
statistic RandomGeometricGraph.rgnv[13] 	arrivalTime:histogram
field count 1
field mean 170.043
field stddev nan
field sum 170.043
field sqrsum 28914.621849
field min 170.043
field max 170.043
attr interpolationmode  none
attr source  arrivalTime
attr title  "arrival time, histogram"
bin	-INF	0
bin	169.543	0
bin	169.57633333333	0
bin	169.60966666667	0
bin	169.643	0
bin	169.67633333333	0
bin	169.70966666667	0
bin	169.743	0
bin	169.77633333333	0
bin	169.80966666667	0
bin	169.843	0
bin	169.87633333333	0
bin	169.90966666667	0
bin	169.943	0
bin	169.97633333333	0
bin	170.00966666667	0
bin	170.043	1
bin	170.07633333333	0
bin	170.10966666667	0
bin	170.143	0
bin	170.17633333333	0
bin	170.20966666667	0
bin	170.243	0
bin	170.27633333333	0
bin	170.30966666667	0
bin	170.343	0
bin	170.37633333333	0
bin	170.40966666667	0
bin	170.443	0
bin	170.47633333333	0
bin	170.50966666667	0
bin	170.543	0
statistic RandomGeometricGraph.rgnv[13] 	arrivalPerc:histogram
field count 1
field mean 1
field stddev nan
field sum 1
field sqrsum 1
field min 1
field max 1
attr interpolationmode  none
attr source  count(arrival)
attr title  "arrival perc, histogram"
bin	-INF	0
bin	0	0
bin	1	1
bin	2	0
statistic RandomGeometricGraph.rgnv[14] 	arrivalTime:histogram
field count 1
field mean 98.868
field stddev nan
field sum 98.868
field sqrsum 9774.881424
field min 98.868
field max 98.868
attr interpolationmode  none
attr source  arrivalTime
attr title  "arrival time, histogram"
bin	-INF	0
bin	98.368	0
bin	98.401333333333	0
bin	98.434666666667	0
bin	98.468	0
bin	98.501333333333	0
bin	98.534666666667	0
bin	98.568	0
bin	98.601333333333	0
bin	98.634666666667	0
bin	98.668	0
bin	98.701333333333	0
bin	98.734666666667	0
bin	98.768	0
bin	98.801333333333	0
bin	98.834666666667	0
bin	98.868	1
bin	98.901333333333	0
bin	98.934666666667	0
bin	98.968	0
bin	99.001333333333	0
bin	99.034666666667	0
bin	99.068	0
bin	99.101333333333	0
bin	99.134666666667	0
bin	99.168	0
bin	99.201333333333	0
bin	99.234666666667	0
bin	99.268	0
bin	99.301333333333	0
bin	99.334666666667	0
bin	99.368	0
statistic RandomGeometricGraph.rgnv[14] 	arrivalPerc:histogram
field count 1
field mean 1
field stddev nan
field sum 1
field sqrsum 1
field min 1
field max 1
attr interpolationmode  none
attr source  count(arrival)
attr title  "arrival perc, histogram"
bin	-INF	0
bin	0	0
bin	1	1
bin	2	0
statistic RandomGeometricGraph.rgnv[15] 	arrivalTime:histogram
field count 1
field mean 108.878
field stddev nan
field sum 108.878
field sqrsum 11854.418884
field min 108.878
field max 108.878
attr interpolationmode  none
attr source  arrivalTime
attr title  "arrival time, histogram"
bin	-INF	0
bin	108.378	0
bin	108.41133333333	0
bin	108.44466666667	0
bin	108.478	0
bin	108.51133333333	0
bin	108.54466666667	0
bin	108.578	0
bin	108.61133333333	0
bin	108.64466666667	0
bin	108.678	0
bin	108.71133333333	0
bin	108.74466666667	0
bin	108.778	0
bin	108.81133333333	0
bin	108.84466666667	0
bin	108.878	1
bin	108.91133333333	0
bin	108.94466666667	0
bin	108.978	0
bin	109.01133333333	0
bin	109.04466666667	0
bin	109.078	0
bin	109.11133333333	0
bin	109.14466666667	0
bin	109.178	0
bin	109.21133333333	0
bin	109.24466666667	0
bin	109.278	0
bin	109.31133333333	0
bin	109.34466666667	0
bin	109.378	0
statistic RandomGeometricGraph.rgnv[15] 	arrivalPerc:histogram
field count 1
field mean 1
field stddev nan
field sum 1
field sqrsum 1
field min 1
field max 1
attr interpolationmode  none
attr source  count(arrival)
attr title  "arrival perc, histogram"
bin	-INF	0
bin	0	0
bin	1	1
bin	2	0
statistic RandomGeometricGraph.rgnv[16] 	arrivalTime:histogram
field count 1
field mean 121.109
field stddev nan
field sum 121.109
field sqrsum 14667.389881
field min 121.109
field max 121.109
attr interpolationmode  none
attr source  arrivalTime
attr title  "arrival time, histogram"
bin	-INF	0
bin	120.609	0
bin	120.64233333333	0
bin	120.67566666667	0
bin	120.709	0
bin	120.74233333333	0
bin	120.77566666667	0
bin	120.809	0
bin	120.84233333333	0
bin	120.87566666667	0
bin	120.909	0
bin	120.94233333333	0
bin	120.97566666667	0
bin	121.009	0
bin	121.04233333333	0
bin	121.07566666667	0
bin	121.109	1
bin	121.14233333333	0
bin	121.17566666667	0
bin	121.209	0
bin	121.24233333333	0
bin	121.27566666667	0
bin	121.309	0
bin	121.34233333333	0
bin	121.37566666667	0
bin	121.409	0
bin	121.44233333333	0
bin	121.47566666667	0
bin	121.509	0
bin	121.54233333333	0
bin	121.57566666667	0
bin	121.609	0
statistic RandomGeometricGraph.rgnv[16] 	arrivalPerc:histogram
field count 1
field mean 1
field stddev nan
field sum 1
field sqrsum 1
field min 1
field max 1
attr interpolationmode  none
attr source  count(arrival)
attr title  "arrival perc, histogram"
bin	-INF	0
bin	0	0
bin	1	1
bin	2	0
statistic RandomGeometricGraph.rgnv[17] 	arrivalTime:histogram
field count 1
field mean 145.571
field stddev nan
field sum 145.571
field sqrsum 21190.916041
field min 145.571
field max 145.571
attr interpolationmode  none
attr source  arrivalTime
attr title  "arrival time, histogram"
bin	-INF	0
bin	145.071	0
bin	145.10433333333	0
bin	145.13766666667	0
bin	145.171	0
bin	145.20433333333	0
bin	145.23766666667	0
bin	145.271	0
bin	145.30433333333	0
bin	145.33766666667	0
bin	145.371	0
bin	145.40433333333	0
bin	145.43766666667	0
bin	145.471	0
bin	145.50433333333	0
bin	145.53766666667	0
bin	145.571	1
bin	145.60433333333	0
bin	145.63766666667	0
bin	145.671	0
bin	145.70433333333	0
bin	145.73766666667	0
bin	145.771	0
bin	145.80433333333	0
bin	145.83766666667	0
bin	145.871	0
bin	145.90433333333	0
bin	145.93766666667	0
bin	145.971	0
bin	146.00433333333	0
bin	146.03766666667	0
bin	146.071	0
statistic RandomGeometricGraph.rgnv[17] 	arrivalPerc:histogram
field count 1
field mean 1
field stddev nan
field sum 1
field sqrsum 1
field min 1
field max 1
attr interpolationmode  none
attr source  count(arrival)
attr title  "arrival perc, histogram"
bin	-INF	0
bin	0	0
bin	1	1
bin	2	0
statistic RandomGeometricGraph.rgnv[18] 	arrivalTime:histogram
field count 1
field mean 72.185
field stddev nan
field sum 72.185
field sqrsum 5210.674225
field min 72.185
field max 72.185
attr interpolationmode  none
attr source  arrivalTime
attr title  "arrival time, histogram"
bin	-INF	0
bin	71.685	0
bin	71.718333333333	0
bin	71.751666666667	0
bin	71.785	0
bin	71.818333333333	0
bin	71.851666666667	0
bin	71.885	0
bin	71.918333333333	0
bin	71.951666666667	0
bin	71.985	0
bin	72.018333333333	0
bin	72.051666666667	0
bin	72.085	0
bin	72.118333333333	0
bin	72.151666666667	0
bin	72.185	1
bin	72.218333333333	0
bin	72.251666666667	0
bin	72.285	0
bin	72.318333333333	0
bin	72.351666666667	0
bin	72.385	0
bin	72.418333333333	0
bin	72.451666666667	0
bin	72.485	0
bin	72.518333333333	0
bin	72.551666666667	0
bin	72.585	0
bin	72.618333333333	0
bin	72.651666666667	0
bin	72.685	0
statistic RandomGeometricGraph.rgnv[18] 	arrivalPerc:histogram
field count 1
field mean 1
field stddev nan
field sum 1
field sqrsum 1
field min 1
field max 1
attr interpolationmode  none
attr source  count(arrival)
attr title  "arrival perc, histogram"
bin	-INF	0
bin	0	0
bin	1	1
bin	2	0
statistic RandomGeometricGraph.rgnv[19] 	arrivalTime:histogram
field count 1
field mean 74.396
field stddev nan
field sum 74.396
field sqrsum 5534.764816
field min 74.396
field max 74.396
attr interpolationmode  none
attr source  arrivalTime
attr title  "arrival time, histogram"
bin	-INF	0
bin	73.896	0
bin	73.929333333333	0
bin	73.962666666667	0
bin	73.996	0
bin	74.029333333333	0
bin	74.062666666667	0
bin	74.096	0
bin	74.129333333333	0
bin	74.162666666667	0
bin	74.196	0
bin	74.229333333333	0
bin	74.262666666667	0
bin	74.296	0
bin	74.329333333333	0
bin	74.362666666667	0
bin	74.396	1
bin	74.429333333333	0
bin	74.462666666667	0
bin	74.496	0
bin	74.529333333333	0
bin	74.562666666667	0
bin	74.596	0
bin	74.629333333333	0
bin	74.662666666667	0
bin	74.696	0
bin	74.729333333333	0
bin	74.762666666667	0
bin	74.796	0
bin	74.829333333333	0
bin	74.862666666667	0
bin	74.896	0
statistic RandomGeometricGraph.rgnv[19] 	arrivalPerc:histogram
field count 1
field mean 1
field stddev nan
field sum 1
field sqrsum 1
field min 1
field max 1
attr interpolationmode  none
attr source  count(arrival)
attr title  "arrival perc, histogram"
bin	-INF	0
bin	0	0
bin	1	1
bin	2	0
statistic RandomGeometricGraph.rgnv[20] 	arrivalTime:histogram
field count 1
field mean 147.792
field stddev nan
field sum 147.792
field sqrsum 21842.475264
field min 147.792
field max 147.792
attr interpolationmode  none
attr source  arrivalTime
attr title  "arrival time, histogram"
bin	-INF	0
bin	147.292	0
bin	147.32533333333	0
bin	147.35866666667	0
bin	147.392	0
bin	147.42533333333	0
bin	147.45866666667	0
bin	147.492	0
bin	147.52533333333	0
bin	147.55866666667	0
bin	147.592	0
bin	147.62533333333	0
bin	147.65866666667	0
bin	147.692	0
bin	147.72533333333	0
bin	147.75866666667	0
bin	147.792	1
bin	147.82533333333	0
bin	147.85866666667	0
bin	147.892	0
bin	147.92533333333	0
bin	147.95866666667	0
bin	147.992	0
bin	148.02533333333	0
bin	148.05866666667	0
bin	148.092	0
bin	148.12533333333	0
bin	148.15866666667	0
bin	148.192	0
bin	148.22533333333	0
bin	148.25866666667	0
bin	148.292	0
statistic RandomGeometricGraph.rgnv[20] 	arrivalPerc:histogram
field count 1
field mean 1
field stddev nan
field sum 1
field sqrsum 1
field min 1
field max 1
attr interpolationmode  none
attr source  count(arrival)
attr title  "arrival perc, histogram"
bin	-INF	0
bin	0	0
bin	1	1
bin	2	0
statistic RandomGeometricGraph.rgnv[21] 	arrivalTime:histogram
field count 1
field mean 108.868
field stddev nan
field sum 108.868
field sqrsum 11852.241424
field min 108.868
field max 108.868
attr interpolationmode  none
attr source  arrivalTime
attr title  "arrival time, histogram"
bin	-INF	0
bin	108.368	0
bin	108.40133333333	0
bin	108.43466666667	0
bin	108.468	0
bin	108.50133333333	0
bin	108.53466666667	0
bin	108.568	0
bin	108.60133333333	0
bin	108.63466666667	0
bin	108.668	0
bin	108.70133333333	0
bin	108.73466666667	0
bin	108.768	0
bin	108.80133333333	0
bin	108.83466666667	0
bin	108.868	1
bin	108.90133333333	0
bin	108.93466666667	0
bin	108.968	0
bin	109.00133333333	0
bin	109.03466666667	0
bin	109.068	0
bin	109.10133333333	0
bin	109.13466666667	0
bin	109.168	0
bin	109.20133333333	0
bin	109.23466666667	0
bin	109.268	0
bin	109.30133333333	0
bin	109.33466666667	0
bin	109.368	0
statistic RandomGeometricGraph.rgnv[21] 	arrivalPerc:histogram
field count 1
field mean 1
field stddev nan
field sum 1
field sqrsum 1
field min 1
field max 1
attr interpolationmode  none
attr source  count(arrival)
attr title  "arrival perc, histogram"
bin	-INF	0
bin	0	0
bin	1	1
bin	2	0
statistic RandomGeometricGraph.rgnv[22] 	arrivalTime:histogram
field count 1
field mean 189.485
field stddev nan
field sum 189.485
field sqrsum 35904.565225
field min 189.485
field max 189.485
attr interpolationmode  none
attr source  arrivalTime
attr title  "arrival time, histogram"
bin	-INF	0
bin	188.985	0
bin	189.01833333333	0
bin	189.05166666667	0
bin	189.085	0
bin	189.11833333333	0
bin	189.15166666667	0
bin	189.185	0
bin	189.21833333333	0
bin	189.25166666667	0
bin	189.285	0
bin	189.31833333333	0
bin	189.35166666667	0
bin	189.385	0
bin	189.41833333333	0
bin	189.45166666667	0
bin	189.485	1
bin	189.51833333333	0
bin	189.55166666667	0
bin	189.585	0
bin	189.61833333333	0
bin	189.65166666667	0
bin	189.685	0
bin	189.71833333333	0
bin	189.75166666667	0
bin	189.785	0
bin	189.81833333333	0
bin	189.85166666667	0
bin	189.885	0
bin	189.91833333333	0
bin	189.95166666667	0
bin	189.985	0
statistic RandomGeometricGraph.rgnv[22] 	arrivalPerc:histogram
field count 1
field mean 1
field stddev nan
field sum 1
field sqrsum 1
field min 1
field max 1
attr interpolationmode  none
attr source  count(arrival)
attr title  "arrival perc, histogram"
bin	-INF	0
bin	0	0
bin	1	1
bin	2	0
statistic RandomGeometricGraph.rgnv[23] 	arrivalTime:histogram
field count 1
field mean 145.571
field stddev nan
field sum 145.571
field sqrsum 21190.916041
field min 145.571
field max 145.571
attr interpolationmode  none
attr source  arrivalTime
attr title  "arrival time, histogram"
bin	-INF	0
bin	145.071	0
bin	145.10433333333	0
bin	145.13766666667	0
bin	145.171	0
bin	145.20433333333	0
bin	145.23766666667	0
bin	145.271	0
bin	145.30433333333	0
bin	145.33766666667	0
bin	145.371	0
bin	145.40433333333	0
bin	145.43766666667	0
bin	145.471	0
bin	145.50433333333	0
bin	145.53766666667	0
bin	145.571	1
bin	145.60433333333	0
bin	145.63766666667	0
bin	145.671	0
bin	145.70433333333	0
bin	145.73766666667	0
bin	145.771	0
bin	145.80433333333	0
bin	145.83766666667	0
bin	145.871	0
bin	145.90433333333	0
bin	145.93766666667	0
bin	145.971	0
bin	146.00433333333	0
bin	146.03766666667	0
bin	146.071	0
statistic RandomGeometricGraph.rgnv[23] 	arrivalPerc:histogram
field count 1
field mean 1
field stddev nan
field sum 1
field sqrsum 1
field min 1
field max 1
attr interpolationmode  none
attr source  count(arrival)
attr title  "arrival perc, histogram"
bin	-INF	0
bin	0	0
bin	1	1
bin	2	0
statistic RandomGeometricGraph.rgnv[24] 	arrivalTime:histogram
field count 1
field mean 133.34
field stddev nan
field sum 133.34
field sqrsum 17779.5556
field min 133.34
field max 133.34
attr interpolationmode  none
attr source  arrivalTime
attr title  "arrival time, histogram"
bin	-INF	0
bin	132.84	0
bin	132.87333333333	0
bin	132.90666666667	0
bin	132.94	0
bin	132.97333333333	0
bin	133.00666666667	0
bin	133.04	0
bin	133.07333333333	0
bin	133.10666666667	0
bin	133.14	0
bin	133.17333333333	0
bin	133.20666666667	0
bin	133.24	0
bin	133.27333333333	0
bin	133.30666666667	0
bin	133.34	1
bin	133.37333333333	0
bin	133.40666666667	0
bin	133.44	0
bin	133.47333333333	0
bin	133.50666666667	0
bin	133.54	0
bin	133.57333333333	0
bin	133.60666666667	0
bin	133.64	0
bin	133.67333333333	0
bin	133.70666666667	0
bin	133.74	0
bin	133.77333333333	0
bin	133.80666666667	0
bin	133.84	0
statistic RandomGeometricGraph.rgnv[24] 	arrivalPerc:histogram
field count 1
field mean 1
field stddev nan
field sum 1
field sqrsum 1
field min 1
field max 1
attr interpolationmode  none
attr source  count(arrival)
attr title  "arrival perc, histogram"
bin	-INF	0
bin	0	0
bin	1	1
bin	2	0
statistic RandomGeometricGraph.rgnv[25] 	arrivalTime:histogram
field count 1
field mean 84.416
field stddev nan
field sum 84.416
field sqrsum 7126.061056
field min 84.416
field max 84.416
attr interpolationmode  none
attr source  arrivalTime
attr title  "arrival time, histogram"
bin	-INF	0
bin	83.916	0
bin	83.949333333333	0
bin	83.982666666667	0
bin	84.016	0
bin	84.049333333333	0
bin	84.082666666667	0
bin	84.116	0
bin	84.149333333333	0
bin	84.182666666667	0
bin	84.216	0
bin	84.249333333333	0
bin	84.282666666667	0
bin	84.316	0
bin	84.349333333333	0
bin	84.382666666667	0
bin	84.416	1
bin	84.449333333333	0
bin	84.482666666667	0
bin	84.516	0
bin	84.549333333333	0
bin	84.582666666667	0
bin	84.616	0
bin	84.649333333333	0
bin	84.682666666667	0
bin	84.716	0
bin	84.749333333333	0
bin	84.782666666667	0
bin	84.816	0
bin	84.849333333333	0
bin	84.882666666667	0
bin	84.916	0
statistic RandomGeometricGraph.rgnv[25] 	arrivalPerc:histogram
field count 1
field mean 1
field stddev nan
field sum 1
field sqrsum 1
field min 1
field max 1
attr interpolationmode  none
attr source  count(arrival)
attr title  "arrival perc, histogram"
bin	-INF	0
bin	0	0
bin	1	1
bin	2	0
statistic RandomGeometricGraph.rgnv[26] 	arrivalTime:histogram
field count 1
field mean 172.254
field stddev nan
field sum 172.254
field sqrsum 29671.440516
field min 172.254
field max 172.254
attr interpolationmode  none
attr source  arrivalTime
attr title  "arrival time, histogram"
bin	-INF	0
bin	171.754	0
bin	171.78733333333	0
bin	171.82066666667	0
bin	171.854	0
bin	171.88733333333	0
bin	171.92066666667	0
bin	171.954	0
bin	171.98733333333	0
bin	172.02066666667	0
bin	172.054	0
bin	172.08733333333	0
bin	172.12066666667	0
bin	172.154	0
bin	172.18733333333	0
bin	172.22066666667	0
bin	172.254	1
bin	172.28733333333	0
bin	172.32066666667	0
bin	172.354	0
bin	172.38733333333	0
bin	172.42066666667	0
bin	172.454	0
bin	172.48733333333	0
bin	172.52066666667	0
bin	172.554	0
bin	172.58733333333	0
bin	172.62066666667	0
bin	172.654	0
bin	172.68733333333	0
bin	172.72066666667	0
bin	172.754	0
statistic RandomGeometricGraph.rgnv[26] 	arrivalPerc:histogram
field count 1
field mean 1
field stddev nan
field sum 1
field sqrsum 1
field min 1
field max 1
attr interpolationmode  none
attr source  count(arrival)
attr title  "arrival perc, histogram"
bin	-INF	0
bin	0	0
bin	1	1
bin	2	0
statistic RandomGeometricGraph.rgnv[27] 	arrivalTime:histogram
field count 1
field mean 170.043
field stddev nan
field sum 170.043
field sqrsum 28914.621849
field min 170.043
field max 170.043
attr interpolationmode  none
attr source  arrivalTime
attr title  "arrival time, histogram"
bin	-INF	0
bin	169.543	0
bin	169.57633333333	0
bin	169.60966666667	0
bin	169.643	0
bin	169.67633333333	0
bin	169.70966666667	0
bin	169.743	0
bin	169.77633333333	0
bin	169.80966666667	0
bin	169.843	0
bin	169.87633333333	0
bin	169.90966666667	0
bin	169.943	0
bin	169.97633333333	0
bin	170.00966666667	0
bin	170.043	1
bin	170.07633333333	0
bin	170.10966666667	0
bin	170.143	0
bin	170.17633333333	0
bin	170.20966666667	0
bin	170.243	0
bin	170.27633333333	0
bin	170.30966666667	0
bin	170.343	0
bin	170.37633333333	0
bin	170.40966666667	0
bin	170.443	0
bin	170.47633333333	0
bin	170.50966666667	0
bin	170.543	0
statistic RandomGeometricGraph.rgnv[27] 	arrivalPerc:histogram
field count 1
field mean 1
field stddev nan
field sum 1
field sqrsum 1
field min 1
field max 1
attr interpolationmode  none
attr source  count(arrival)
attr title  "arrival perc, histogram"
bin	-INF	0
bin	0	0
bin	1	1
bin	2	0
statistic RandomGeometricGraph.rgnv[28] 	arrivalTime:histogram
field count 1
field mean 108.878
field stddev nan
field sum 108.878
field sqrsum 11854.418884
field min 108.878
field max 108.878
attr interpolationmode  none
attr source  arrivalTime
attr title  "arrival time, histogram"
bin	-INF	0
bin	108.378	0
bin	108.41133333333	0
bin	108.44466666667	0
bin	108.478	0
bin	108.51133333333	0
bin	108.54466666667	0
bin	108.578	0
bin	108.61133333333	0
bin	108.64466666667	0
bin	108.678	0
bin	108.71133333333	0
bin	108.74466666667	0
bin	108.778	0
bin	108.81133333333	0
bin	108.84466666667	0
bin	108.878	1
bin	108.91133333333	0
bin	108.94466666667	0
bin	108.978	0
bin	109.01133333333	0
bin	109.04466666667	0
bin	109.078	0
bin	109.11133333333	0
bin	109.14466666667	0
bin	109.178	0
bin	109.21133333333	0
bin	109.24466666667	0
bin	109.278	0
bin	109.31133333333	0
bin	109.34466666667	0
bin	109.378	0
statistic RandomGeometricGraph.rgnv[28] 	arrivalPerc:histogram
field count 1
field mean 1
field stddev nan
field sum 1
field sqrsum 1
field min 1
field max 1
attr interpolationmode  none
attr source  count(arrival)
attr title  "arrival perc, histogram"
bin	-INF	0
bin	0	0
bin	1	1
bin	2	0
statistic RandomGeometricGraph.rgnv[29] 	arrivalTime:histogram
field count 1
field mean 91.647
field stddev nan
field sum 91.647
field sqrsum 8399.172609
field min 91.647
field max 91.647
attr interpolationmode  none
attr source  arrivalTime
attr title  "arrival time, histogram"
bin	-INF	0
bin	91.147	0
bin	91.180333333333	0
bin	91.213666666667	0
bin	91.247	0
bin	91.280333333333	0
bin	91.313666666667	0
bin	91.347	0
bin	91.380333333333	0
bin	91.413666666667	0
bin	91.447	0
bin	91.480333333333	0
bin	91.513666666667	0
bin	91.547	0
bin	91.580333333333	0
bin	91.613666666667	0
bin	91.647	1
bin	91.680333333333	0
bin	91.713666666667	0
bin	91.747	0
bin	91.780333333333	0
bin	91.813666666667	0
bin	91.847	0
bin	91.880333333333	0
bin	91.913666666667	0
bin	91.947	0
bin	91.980333333333	0
bin	92.013666666667	0
bin	92.047	0
bin	92.080333333333	0
bin	92.113666666667	0
bin	92.147	0
statistic RandomGeometricGraph.rgnv[29] 	arrivalPerc:histogram
field count 1
field mean 1
field stddev nan
field sum 1
field sqrsum 1
field min 1
field max 1
attr interpolationmode  none
attr source  count(arrival)
attr title  "arrival perc, histogram"
bin	-INF	0
bin	0	0
bin	1	1
bin	2	0
statistic RandomGeometricGraph.rgnv[30] 	arrivalTime:histogram
field count 1
field mean 123.34
field stddev nan
field sum 123.34
field sqrsum 15212.7556
field min 123.34
field max 123.34
attr interpolationmode  none
attr source  arrivalTime
attr title  "arrival time, histogram"
bin	-INF	0
bin	122.84	0
bin	122.87333333333	0
bin	122.90666666667	0
bin	122.94	0
bin	122.97333333333	0
bin	123.00666666667	0
bin	123.04	0
bin	123.07333333333	0
bin	123.10666666667	0
bin	123.14	0
bin	123.17333333333	0
bin	123.20666666667	0
bin	123.24	0
bin	123.27333333333	0
bin	123.30666666667	0
bin	123.34	1
bin	123.37333333333	0
bin	123.40666666667	0
bin	123.44	0
bin	123.47333333333	0
bin	123.50666666667	0
bin	123.54	0
bin	123.57333333333	0
bin	123.60666666667	0
bin	123.64	0
bin	123.67333333333	0
bin	123.70666666667	0
bin	123.74	0
bin	123.77333333333	0
bin	123.80666666667	0
bin	123.84	0
statistic RandomGeometricGraph.rgnv[30] 	arrivalPerc:histogram
field count 1
field mean 1
field stddev nan
field sum 1
field sqrsum 1
field min 1
field max 1
attr interpolationmode  none
attr source  count(arrival)
attr title  "arrival perc, histogram"
bin	-INF	0
bin	0	0
bin	1	1
bin	2	0
statistic RandomGeometricGraph.rgnv[31] 	arrivalTime:histogram
field count 1
field mean 121.109
field stddev nan
field sum 121.109
field sqrsum 14667.389881
field min 121.109
field max 121.109
attr interpolationmode  none
attr source  arrivalTime
attr title  "arrival time, histogram"
bin	-INF	0
bin	120.609	0
bin	120.64233333333	0
bin	120.67566666667	0
bin	120.709	0
bin	120.74233333333	0
bin	120.77566666667	0
bin	120.809	0
bin	120.84233333333	0
bin	120.87566666667	0
bin	120.909	0
bin	120.94233333333	0
bin	120.97566666667	0
bin	121.009	0
bin	121.04233333333	0
bin	121.07566666667	0
bin	121.109	1
bin	121.14233333333	0
bin	121.17566666667	0
bin	121.209	0
bin	121.24233333333	0
bin	121.27566666667	0
bin	121.309	0
bin	121.34233333333	0
bin	121.37566666667	0
bin	121.409	0
bin	121.44233333333	0
bin	121.47566666667	0
bin	121.509	0
bin	121.54233333333	0
bin	121.57566666667	0
bin	121.609	0
statistic RandomGeometricGraph.rgnv[31] 	arrivalPerc:histogram
field count 1
field mean 1
field stddev nan
field sum 1
field sqrsum 1
field min 1
field max 1
attr interpolationmode  none
attr source  count(arrival)
attr title  "arrival perc, histogram"
bin	-INF	0
bin	0	0
bin	1	1
bin	2	0
statistic RandomGeometricGraph.rgnv[32] 	arrivalTime:histogram
field count 1
field mean 147.792
field stddev nan
field sum 147.792
field sqrsum 21842.475264
field min 147.792
field max 147.792
attr interpolationmode  none
attr source  arrivalTime
attr title  "arrival time, histogram"
bin	-INF	0
bin	147.292	0
bin	147.32533333333	0
bin	147.35866666667	0
bin	147.392	0
bin	147.42533333333	0
bin	147.45866666667	0
bin	147.492	0
bin	147.52533333333	0
bin	147.55866666667	0
bin	147.592	0
bin	147.62533333333	0
bin	147.65866666667	0
bin	147.692	0
bin	147.72533333333	0
bin	147.75866666667	0
bin	147.792	1
bin	147.82533333333	0
bin	147.85866666667	0
bin	147.892	0
bin	147.92533333333	0
bin	147.95866666667	0
bin	147.992	0
bin	148.02533333333	0
bin	148.05866666667	0
bin	148.092	0
bin	148.12533333333	0
bin	148.15866666667	0
bin	148.192	0
bin	148.22533333333	0
bin	148.25866666667	0
bin	148.292	0
statistic RandomGeometricGraph.rgnv[32] 	arrivalPerc:histogram
field count 1
field mean 1
field stddev nan
field sum 1
field sqrsum 1
field min 1
field max 1
attr interpolationmode  none
attr source  count(arrival)
attr title  "arrival perc, histogram"
bin	-INF	0
bin	0	0
bin	1	1
bin	2	0
statistic RandomGeometricGraph.rgnv[33] 	arrivalTime:histogram
field count 1
field mean 72.195
field stddev nan
field sum 72.195
field sqrsum 5212.118025
field min 72.195
field max 72.195
attr interpolationmode  none
attr source  arrivalTime
attr title  "arrival time, histogram"
bin	-INF	0
bin	71.695	0
bin	71.728333333333	0
bin	71.761666666667	0
bin	71.795	0
bin	71.828333333333	0
bin	71.861666666667	0
bin	71.895	0
bin	71.928333333333	0
bin	71.961666666667	0
bin	71.995	0
bin	72.028333333333	0
bin	72.061666666667	0
bin	72.095	0
bin	72.128333333333	0
bin	72.161666666667	0
bin	72.195	1
bin	72.228333333333	0
bin	72.261666666667	0
bin	72.295	0
bin	72.328333333333	0
bin	72.361666666667	0
bin	72.395	0
bin	72.428333333333	0
bin	72.461666666667	0
bin	72.495	0
bin	72.528333333333	0
bin	72.561666666667	0
bin	72.595	0
bin	72.628333333333	0
bin	72.661666666667	0
bin	72.695	0
statistic RandomGeometricGraph.rgnv[33] 	arrivalPerc:histogram
field count 1
field mean 1
field stddev nan
field sum 1
field sqrsum 1
field min 1
field max 1
attr interpolationmode  none
attr source  count(arrival)
attr title  "arrival perc, histogram"
bin	-INF	0
bin	0	0
bin	1	1
bin	2	0
statistic RandomGeometricGraph.rgnv[34] 	arrivalTime:histogram
field count 1
field mean 140.571
field stddev nan
field sum 140.571
field sqrsum 19760.206041
field min 140.571
field max 140.571
attr interpolationmode  none
attr source  arrivalTime
attr title  "arrival time, histogram"
bin	-INF	0
bin	140.071	0
bin	140.10433333333	0
bin	140.13766666667	0
bin	140.171	0
bin	140.20433333333	0
bin	140.23766666667	0
bin	140.271	0
bin	140.30433333333	0
bin	140.33766666667	0
bin	140.371	0
bin	140.40433333333	0
bin	140.43766666667	0
bin	140.471	0
bin	140.50433333333	0
bin	140.53766666667	0
bin	140.571	1
bin	140.60433333333	0
bin	140.63766666667	0
bin	140.671	0
bin	140.70433333333	0
bin	140.73766666667	0
bin	140.771	0
bin	140.80433333333	0
bin	140.83766666667	0
bin	140.871	0
bin	140.90433333333	0
bin	140.93766666667	0
bin	140.971	0
bin	141.00433333333	0
bin	141.03766666667	0
bin	141.071	0
statistic RandomGeometricGraph.rgnv[34] 	arrivalPerc:histogram
field count 1
field mean 1
field stddev nan
field sum 1
field sqrsum 1
field min 1
field max 1
attr interpolationmode  none
attr source  count(arrival)
attr title  "arrival perc, histogram"
bin	-INF	0
bin	0	0
bin	1	1
bin	2	0
statistic RandomGeometricGraph.rgnv[35] 	arrivalTime:histogram
field count 1
field mean 128.33
field stddev nan
field sum 128.33
field sqrsum 16468.5889
field min 128.33
field max 128.33
attr interpolationmode  none
attr source  arrivalTime
attr title  "arrival time, histogram"
bin	-INF	0
bin	127.83	0
bin	127.86333333333	0
bin	127.89666666667	0
bin	127.93	0
bin	127.96333333333	0
bin	127.99666666667	0
bin	128.03	0
bin	128.06333333333	0
bin	128.09666666667	0
bin	128.13	0
bin	128.16333333333	0
bin	128.19666666667	0
bin	128.23	0
bin	128.26333333333	0
bin	128.29666666667	0
bin	128.33	1
bin	128.36333333333	0
bin	128.39666666667	0
bin	128.43	0
bin	128.46333333333	0
bin	128.49666666667	0
bin	128.53	0
bin	128.56333333333	0
bin	128.59666666667	0
bin	128.63	0
bin	128.66333333333	0
bin	128.69666666667	0
bin	128.73	0
bin	128.76333333333	0
bin	128.79666666667	0
bin	128.83	0
statistic RandomGeometricGraph.rgnv[35] 	arrivalPerc:histogram
field count 1
field mean 1
field stddev nan
field sum 1
field sqrsum 1
field min 1
field max 1
attr interpolationmode  none
attr source  count(arrival)
attr title  "arrival perc, histogram"
bin	-INF	0
bin	0	0
bin	1	1
bin	2	0
statistic RandomGeometricGraph.rgnv[36] 	arrivalTime:histogram
field count 1
field mean 177.274
field stddev nan
field sum 177.274
field sqrsum 31426.071076
field min 177.274
field max 177.274
attr interpolationmode  none
attr source  arrivalTime
attr title  "arrival time, histogram"
bin	-INF	0
bin	176.774	0
bin	176.80733333333	0
bin	176.84066666667	0
bin	176.874	0
bin	176.90733333333	0
bin	176.94066666667	0
bin	176.974	0
bin	177.00733333333	0
bin	177.04066666667	0
bin	177.074	0
bin	177.10733333333	0
bin	177.14066666667	0
bin	177.174	0
bin	177.20733333333	0
bin	177.24066666667	0
bin	177.274	1
bin	177.30733333333	0
bin	177.34066666667	0
bin	177.374	0
bin	177.40733333333	0
bin	177.44066666667	0
bin	177.474	0
bin	177.50733333333	0
bin	177.54066666667	0
bin	177.574	0
bin	177.60733333333	0
bin	177.64066666667	0
bin	177.674	0
bin	177.70733333333	0
bin	177.74066666667	0
bin	177.774	0
statistic RandomGeometricGraph.rgnv[36] 	arrivalPerc:histogram
field count 1
field mean 1
field stddev nan
field sum 1
field sqrsum 1
field min 1
field max 1
attr interpolationmode  none
attr source  count(arrival)
attr title  "arrival perc, histogram"
bin	-INF	0
bin	0	0
bin	1	1
bin	2	0
statistic RandomGeometricGraph.rgnv[37] 	arrivalTime:histogram
field count 1
field mean 84.426
field stddev nan
field sum 84.426
field sqrsum 7127.749476
field min 84.426
field max 84.426
attr interpolationmode  none
attr source  arrivalTime
attr title  "arrival time, histogram"
bin	-INF	0
bin	83.926	0
bin	83.959333333333	0
bin	83.992666666667	0
bin	84.026	0
bin	84.059333333333	0
bin	84.092666666667	0
bin	84.126	0
bin	84.159333333333	0
bin	84.192666666667	0
bin	84.226	0
bin	84.259333333333	0
bin	84.292666666667	0
bin	84.326	0
bin	84.359333333333	0
bin	84.392666666667	0
bin	84.426	1
bin	84.459333333333	0
bin	84.492666666667	0
bin	84.526	0
bin	84.559333333333	0
bin	84.592666666667	0
bin	84.626	0
bin	84.659333333333	0
bin	84.692666666667	0
bin	84.726	0
bin	84.759333333333	0
bin	84.792666666667	0
bin	84.826	0
bin	84.859333333333	0
bin	84.892666666667	0
bin	84.926	0
statistic RandomGeometricGraph.rgnv[37] 	arrivalPerc:histogram
field count 1
field mean 1
field stddev nan
field sum 1
field sqrsum 1
field min 1
field max 1
attr interpolationmode  none
attr source  count(arrival)
attr title  "arrival perc, histogram"
bin	-INF	0
bin	0	0
bin	1	1
bin	2	0
statistic RandomGeometricGraph.rgnv[38] 	arrivalTime:histogram
field count 1
field mean 98.868
field stddev nan
field sum 98.868
field sqrsum 9774.881424
field min 98.868
field max 98.868
attr interpolationmode  none
attr source  arrivalTime
attr title  "arrival time, histogram"
bin	-INF	0
bin	98.368	0
bin	98.401333333333	0
bin	98.434666666667	0
bin	98.468	0
bin	98.501333333333	0
bin	98.534666666667	0
bin	98.568	0
bin	98.601333333333	0
bin	98.634666666667	0
bin	98.668	0
bin	98.701333333333	0
bin	98.734666666667	0
bin	98.768	0
bin	98.801333333333	0
bin	98.834666666667	0
bin	98.868	1
bin	98.901333333333	0
bin	98.934666666667	0
bin	98.968	0
bin	99.001333333333	0
bin	99.034666666667	0
bin	99.068	0
bin	99.101333333333	0
bin	99.134666666667	0
bin	99.168	0
bin	99.201333333333	0
bin	99.234666666667	0
bin	99.268	0
bin	99.301333333333	0
bin	99.334666666667	0
bin	99.368	0
statistic RandomGeometricGraph.rgnv[38] 	arrivalPerc:histogram
field count 1
field mean 1
field stddev nan
field sum 1
field sqrsum 1
field min 1
field max 1
attr interpolationmode  none
attr source  count(arrival)
attr title  "arrival perc, histogram"
bin	-INF	0
bin	0	0
bin	1	1
bin	2	0
statistic RandomGeometricGraph.rgnv[39] 	arrivalTime:histogram
field count 1
field mean 160.023
field stddev nan
field sum 160.023
field sqrsum 25607.360529
field min 160.023
field max 160.023
attr interpolationmode  none
attr source  arrivalTime
attr title  "arrival time, histogram"
bin	-INF	0
bin	159.523	0
bin	159.55633333333	0
bin	159.58966666667	0
bin	159.623	0
bin	159.65633333333	0
bin	159.68966666667	0
bin	159.723	0
bin	159.75633333333	0
bin	159.78966666667	0
bin	159.823	0
bin	159.85633333333	0
bin	159.88966666667	0
bin	159.923	0
bin	159.95633333333	0
bin	159.98966666667	0
bin	160.023	1
bin	160.05633333333	0
bin	160.08966666667	0
bin	160.123	0
bin	160.15633333333	0
bin	160.18966666667	0
bin	160.223	0
bin	160.25633333333	0
bin	160.28966666667	0
bin	160.323	0
bin	160.35633333333	0
bin	160.38966666667	0
bin	160.423	0
bin	160.45633333333	0
bin	160.48966666667	0
bin	160.523	0
statistic RandomGeometricGraph.rgnv[39] 	arrivalPerc:histogram
field count 1
field mean 1
field stddev nan
field sum 1
field sqrsum 1
field min 1
field max 1
attr interpolationmode  none
attr source  count(arrival)
attr title  "arrival perc, histogram"
bin	-INF	0
bin	0	0
bin	1	1
bin	2	0
statistic RandomGeometricGraph.rgnv[40] 	arrivalTime:histogram
field count 1
field mean 121.109
field stddev nan
field sum 121.109
field sqrsum 14667.389881
field min 121.109
field max 121.109
attr interpolationmode  none
attr source  arrivalTime
attr title  "arrival time, histogram"
bin	-INF	0
bin	120.609	0
bin	120.64233333333	0
bin	120.67566666667	0
bin	120.709	0
bin	120.74233333333	0
bin	120.77566666667	0
bin	120.809	0
bin	120.84233333333	0
bin	120.87566666667	0
bin	120.909	0
bin	120.94233333333	0
bin	120.97566666667	0
bin	121.009	0
bin	121.04233333333	0
bin	121.07566666667	0
bin	121.109	1
bin	121.14233333333	0
bin	121.17566666667	0
bin	121.209	0
bin	121.24233333333	0
bin	121.27566666667	0
bin	121.309	0
bin	121.34233333333	0
bin	121.37566666667	0
bin	121.409	0
bin	121.44233333333	0
bin	121.47566666667	0
bin	121.509	0
bin	121.54233333333	0
bin	121.57566666667	0
bin	121.609	0
statistic RandomGeometricGraph.rgnv[40] 	arrivalPerc:histogram
field count 1
field mean 1
field stddev nan
field sum 1
field sqrsum 1
field min 1
field max 1
attr interpolationmode  none
attr source  count(arrival)
attr title  "arrival perc, histogram"
bin	-INF	0
bin	0	0
bin	1	1
bin	2	0
statistic RandomGeometricGraph.rgnv[41] 	arrivalTime:histogram
field count 1
field mean 111.099
field stddev nan
field sum 111.099
field sqrsum 12342.987801
field min 111.099
field max 111.099
attr interpolationmode  none
attr source  arrivalTime
attr title  "arrival time, histogram"
bin	-INF	0
bin	110.599	0
bin	110.63233333333	0
bin	110.66566666667	0
bin	110.699	0
bin	110.73233333333	0
bin	110.76566666667	0
bin	110.799	0
bin	110.83233333333	0
bin	110.86566666667	0
bin	110.899	0
bin	110.93233333333	0
bin	110.96566666667	0
bin	110.999	0
bin	111.03233333333	0
bin	111.06566666667	0
bin	111.099	1
bin	111.13233333333	0
bin	111.16566666667	0
bin	111.199	0
bin	111.23233333333	0
bin	111.26566666667	0
bin	111.299	0
bin	111.33233333333	0
bin	111.36566666667	0
bin	111.399	0
bin	111.43233333333	0
bin	111.46566666667	0
bin	111.499	0
bin	111.53233333333	0
bin	111.56566666667	0
bin	111.599	0
statistic RandomGeometricGraph.rgnv[41] 	arrivalPerc:histogram
field count 1
field mean 1
field stddev nan
field sum 1
field sqrsum 1
field min 1
field max 1
attr interpolationmode  none
attr source  count(arrival)
attr title  "arrival perc, histogram"
bin	-INF	0
bin	0	0
bin	1	1
bin	2	0
statistic RandomGeometricGraph.rgnv[42] 	arrivalTime:histogram
field count 1
field mean 182.274
field stddev nan
field sum 182.274
field sqrsum 33223.811076
field min 182.274
field max 182.274
attr interpolationmode  none
attr source  arrivalTime
attr title  "arrival time, histogram"
bin	-INF	0
bin	181.774	0
bin	181.80733333333	0
bin	181.84066666667	0
bin	181.874	0
bin	181.90733333333	0
bin	181.94066666667	0
bin	181.974	0
bin	182.00733333333	0
bin	182.04066666667	0
bin	182.074	0
bin	182.10733333333	0
bin	182.14066666667	0
bin	182.174	0
bin	182.20733333333	0
bin	182.24066666667	0
bin	182.274	1
bin	182.30733333333	0
bin	182.34066666667	0
bin	182.374	0
bin	182.40733333333	0
bin	182.44066666667	0
bin	182.474	0
bin	182.50733333333	0
bin	182.54066666667	0
bin	182.574	0
bin	182.60733333333	0
bin	182.64066666667	0
bin	182.674	0
bin	182.70733333333	0
bin	182.74066666667	0
bin	182.774	0
statistic RandomGeometricGraph.rgnv[42] 	arrivalPerc:histogram
field count 1
field mean 1
field stddev nan
field sum 1
field sqrsum 1
field min 1
field max 1
attr interpolationmode  none
attr source  count(arrival)
attr title  "arrival perc, histogram"
bin	-INF	0
bin	0	0
bin	1	1
bin	2	0
statistic RandomGeometricGraph.rgnv[43] 	arrivalTime:histogram
field count 1
field mean 213.977
field stddev nan
field sum 213.977
field sqrsum 45786.156529
field min 213.977
field max 213.977
attr interpolationmode  none
attr source  arrivalTime
attr title  "arrival time, histogram"
bin	-INF	0
bin	213.477	0
bin	213.51033333333	0
bin	213.54366666667	0
bin	213.577	0
bin	213.61033333333	0
bin	213.64366666667	0
bin	213.677	0
bin	213.71033333333	0
bin	213.74366666667	0
bin	213.777	0
bin	213.81033333333	0
bin	213.84366666667	0
bin	213.877	0
bin	213.91033333333	0
bin	213.94366666667	0
bin	213.977	1
bin	214.01033333333	0
bin	214.04366666667	0
bin	214.077	0
bin	214.11033333333	0
bin	214.14366666667	0
bin	214.177	0
bin	214.21033333333	0
bin	214.24366666667	0
bin	214.277	0
bin	214.31033333333	0
bin	214.34366666667	0
bin	214.377	0
bin	214.41033333333	0
bin	214.44366666667	0
bin	214.477	0
statistic RandomGeometricGraph.rgnv[43] 	arrivalPerc:histogram
field count 1
field mean 1
field stddev nan
field sum 1
field sqrsum 1
field min 1
field max 1
attr interpolationmode  none
attr source  count(arrival)
attr title  "arrival perc, histogram"
bin	-INF	0
bin	0	0
bin	1	1
bin	2	0
statistic RandomGeometricGraph.rgnv[44] 	arrivalTime:histogram
field count 1
field mean 86.647
field stddev nan
field sum 86.647
field sqrsum 7507.702609
field min 86.647
field max 86.647
attr interpolationmode  none
attr source  arrivalTime
attr title  "arrival time, histogram"
bin	-INF	0
bin	86.147	0
bin	86.180333333333	0
bin	86.213666666667	0
bin	86.247	0
bin	86.280333333333	0
bin	86.313666666667	0
bin	86.347	0
bin	86.380333333333	0
bin	86.413666666667	0
bin	86.447	0
bin	86.480333333333	0
bin	86.513666666667	0
bin	86.547	0
bin	86.580333333333	0
bin	86.613666666667	0
bin	86.647	1
bin	86.680333333333	0
bin	86.713666666667	0
bin	86.747	0
bin	86.780333333333	0
bin	86.813666666667	0
bin	86.847	0
bin	86.880333333333	0
bin	86.913666666667	0
bin	86.947	0
bin	86.980333333333	0
bin	87.013666666667	0
bin	87.047	0
bin	87.080333333333	0
bin	87.113666666667	0
bin	87.147	0
statistic RandomGeometricGraph.rgnv[44] 	arrivalPerc:histogram
field count 1
field mean 1
field stddev nan
field sum 1
field sqrsum 1
field min 1
field max 1
attr interpolationmode  none
attr source  count(arrival)
attr title  "arrival perc, histogram"
bin	-INF	0
bin	0	0
bin	1	1
bin	2	0
statistic RandomGeometricGraph.rgnv[45] 	arrivalTime:histogram
field count 1
field mean 152.802
field stddev nan
field sum 152.802
field sqrsum 23348.451204
field min 152.802
field max 152.802
attr interpolationmode  none
attr source  arrivalTime
attr title  "arrival time, histogram"
bin	-INF	0
bin	152.302	0
bin	152.33533333333	0
bin	152.36866666667	0
bin	152.402	0
bin	152.43533333333	0
bin	152.46866666667	0
bin	152.502	0
bin	152.53533333333	0
bin	152.56866666667	0
bin	152.602	0
bin	152.63533333333	0
bin	152.66866666667	0
bin	152.702	0
bin	152.73533333333	0
bin	152.76866666667	0
bin	152.802	1
bin	152.83533333333	0
bin	152.86866666667	0
bin	152.902	0
bin	152.93533333333	0
bin	152.96866666667	0
bin	153.002	0
bin	153.03533333333	0
bin	153.06866666667	0
bin	153.102	0
bin	153.13533333333	0
bin	153.16866666667	0
bin	153.202	0
bin	153.23533333333	0
bin	153.26866666667	0
bin	153.302	0
statistic RandomGeometricGraph.rgnv[45] 	arrivalPerc:histogram
field count 1
field mean 1
field stddev nan
field sum 1
field sqrsum 1
field min 1
field max 1
attr interpolationmode  none
attr source  count(arrival)
attr title  "arrival perc, histogram"
bin	-INF	0
bin	0	0
bin	1	1
bin	2	0
statistic RandomGeometricGraph.rgnv[46] 	arrivalTime:histogram
field count 1
field mean 111.089
field stddev nan
field sum 111.089
field sqrsum 12340.765921
field min 111.089
field max 111.089
attr interpolationmode  none
attr source  arrivalTime
attr title  "arrival time, histogram"
bin	-INF	0
bin	110.589	0
bin	110.62233333333	0
bin	110.65566666667	0
bin	110.689	0
bin	110.72233333333	0
bin	110.75566666667	0
bin	110.789	0
bin	110.82233333333	0
bin	110.85566666667	0
bin	110.889	0
bin	110.92233333333	0
bin	110.95566666667	0
bin	110.989	0
bin	111.02233333333	0
bin	111.05566666667	0
bin	111.089	1
bin	111.12233333333	0
bin	111.15566666667	0
bin	111.189	0
bin	111.22233333333	0
bin	111.25566666667	0
bin	111.289	0
bin	111.32233333333	0
bin	111.35566666667	0
bin	111.389	0
bin	111.42233333333	0
bin	111.45566666667	0
bin	111.489	0
bin	111.52233333333	0
bin	111.55566666667	0
bin	111.589	0
statistic RandomGeometricGraph.rgnv[46] 	arrivalPerc:histogram
field count 1
field mean 1
field stddev nan
field sum 1
field sqrsum 1
field min 1
field max 1
attr interpolationmode  none
attr source  count(arrival)
attr title  "arrival perc, histogram"
bin	-INF	0
bin	0	0
bin	1	1
bin	2	0
statistic RandomGeometricGraph.rgnv[47] 	arrivalTime:histogram
field count 0
field mean nan
field stddev nan
field sum 0
field sqrsum 0
field min nan
field max nan
attr interpolationmode  none
attr source  arrivalTime
attr title  "arrival time, histogram"
bin	-INF	0
bin	-0.5	0
bin	-0.46666666666667	0
bin	-0.43333333333333	0
bin	-0.4	0
bin	-0.36666666666667	0
bin	-0.33333333333333	0
bin	-0.3	0
bin	-0.26666666666667	0
bin	-0.23333333333333	0
bin	-0.2	0
bin	-0.16666666666667	0
bin	-0.13333333333333	0
bin	-0.1	0
bin	-0.066666666666667	0
bin	-0.033333333333333	0
bin	0	0
bin	0.033333333333333	0
bin	0.066666666666667	0
bin	0.1	0
bin	0.13333333333333	0
bin	0.16666666666667	0
bin	0.2	0
bin	0.23333333333333	0
bin	0.26666666666667	0
bin	0.3	0
bin	0.33333333333333	0
bin	0.36666666666667	0
bin	0.4	0
bin	0.43333333333333	0
bin	0.46666666666667	0
bin	0.5	0
statistic RandomGeometricGraph.rgnv[47] 	arrivalPerc:histogram
field count 0
field mean nan
field stddev nan
field sum 0
field sqrsum 0
field min nan
field max nan
attr interpolationmode  none
attr source  count(arrival)
attr title  "arrival perc, histogram"
bin	-INF	0
bin	-0.5	0
bin	-0.46666666666667	0
bin	-0.43333333333333	0
bin	-0.4	0
bin	-0.36666666666667	0
bin	-0.33333333333333	0
bin	-0.3	0
bin	-0.26666666666667	0
bin	-0.23333333333333	0
bin	-0.2	0
bin	-0.16666666666667	0
bin	-0.13333333333333	0
bin	-0.1	0
bin	-0.066666666666667	0
bin	-0.033333333333333	0
bin	0	0
bin	0.033333333333333	0
bin	0.066666666666667	0
bin	0.1	0
bin	0.13333333333333	0
bin	0.16666666666667	0
bin	0.2	0
bin	0.23333333333333	0
bin	0.26666666666667	0
bin	0.3	0
bin	0.33333333333333	0
bin	0.36666666666667	0
bin	0.4	0
bin	0.43333333333333	0
bin	0.46666666666667	0
bin	0.5	0
statistic RandomGeometricGraph.rgnv[48] 	arrivalTime:histogram
field count 1
field mean 206.736
field stddev nan
field sum 206.736
field sqrsum 42739.773696
field min 206.736
field max 206.736
attr interpolationmode  none
attr source  arrivalTime
attr title  "arrival time, histogram"
bin	-INF	0
bin	206.236	0
bin	206.26933333333	0
bin	206.30266666667	0
bin	206.336	0
bin	206.36933333333	0
bin	206.40266666667	0
bin	206.436	0
bin	206.46933333333	0
bin	206.50266666667	0
bin	206.536	0
bin	206.56933333333	0
bin	206.60266666667	0
bin	206.636	0
bin	206.66933333333	0
bin	206.70266666667	0
bin	206.736	1
bin	206.76933333333	0
bin	206.80266666667	0
bin	206.836	0
bin	206.86933333333	0
bin	206.90266666667	0
bin	206.936	0
bin	206.96933333333	0
bin	207.00266666667	0
bin	207.036	0
bin	207.06933333333	0
bin	207.10266666667	0
bin	207.136	0
bin	207.16933333333	0
bin	207.20266666667	0
bin	207.236	0
statistic RandomGeometricGraph.rgnv[48] 	arrivalPerc:histogram
field count 1
field mean 1
field stddev nan
field sum 1
field sqrsum 1
field min 1
field max 1
attr interpolationmode  none
attr source  count(arrival)
attr title  "arrival perc, histogram"
bin	-INF	0
bin	0	0
bin	1	1
bin	2	0
statistic RandomGeometricGraph.rgnv[49] 	arrivalTime:histogram
field count 1
field mean 96.657
field stddev nan
field sum 96.657
field sqrsum 9342.575649
field min 96.657
field max 96.657
attr interpolationmode  none
attr source  arrivalTime
attr title  "arrival time, histogram"
bin	-INF	0
bin	96.157	0
bin	96.190333333333	0
bin	96.223666666667	0
bin	96.257	0
bin	96.290333333333	0
bin	96.323666666667	0
bin	96.357	0
bin	96.390333333333	0
bin	96.423666666667	0
bin	96.457	0
bin	96.490333333333	0
bin	96.523666666667	0
bin	96.557	0
bin	96.590333333333	0
bin	96.623666666667	0
bin	96.657	1
bin	96.690333333333	0
bin	96.723666666667	0
bin	96.757	0
bin	96.790333333333	0
bin	96.823666666667	0
bin	96.857	0
bin	96.890333333333	0
bin	96.923666666667	0
bin	96.957	0
bin	96.990333333333	0
bin	97.023666666667	0
bin	97.057	0
bin	97.090333333333	0
bin	97.123666666667	0
bin	97.157	0
statistic RandomGeometricGraph.rgnv[49] 	arrivalPerc:histogram
field count 1
field mean 1
field stddev nan
field sum 1
field sqrsum 1
field min 1
field max 1
attr interpolationmode  none
attr source  count(arrival)
attr title  "arrival perc, histogram"
bin	-INF	0
bin	0	0
bin	1	1
bin	2	0
statistic RandomGeometricGraph.rgnv[50] 	arrivalTime:histogram
field count 1
field mean 79.406
field stddev nan
field sum 79.406
field sqrsum 6305.312836
field min 79.406
field max 79.406
attr interpolationmode  none
attr source  arrivalTime
attr title  "arrival time, histogram"
bin	-INF	0
bin	78.906	0
bin	78.939333333333	0
bin	78.972666666667	0
bin	79.006	0
bin	79.039333333333	0
bin	79.072666666667	0
bin	79.106	0
bin	79.139333333333	0
bin	79.172666666667	0
bin	79.206	0
bin	79.239333333333	0
bin	79.272666666667	0
bin	79.306	0
bin	79.339333333333	0
bin	79.372666666667	0
bin	79.406	1
bin	79.439333333333	0
bin	79.472666666667	0
bin	79.506	0
bin	79.539333333333	0
bin	79.572666666667	0
bin	79.606	0
bin	79.639333333333	0
bin	79.672666666667	0
bin	79.706	0
bin	79.739333333333	0
bin	79.772666666667	0
bin	79.806	0
bin	79.839333333333	0
bin	79.872666666667	0
bin	79.906	0
statistic RandomGeometricGraph.rgnv[50] 	arrivalPerc:histogram
field count 1
field mean 1
field stddev nan
field sum 1
field sqrsum 1
field min 1
field max 1
attr interpolationmode  none
attr source  count(arrival)
attr title  "arrival perc, histogram"
bin	-INF	0
bin	0	0
bin	1	1
bin	2	0
statistic RandomGeometricGraph.rgnv[51] 	arrivalTime:histogram
field count 1
field mean 177.264
field stddev nan
field sum 177.264
field sqrsum 31422.525696
field min 177.264
field max 177.264
attr interpolationmode  none
attr source  arrivalTime
attr title  "arrival time, histogram"
bin	-INF	0
bin	176.764	0
bin	176.79733333333	0
bin	176.83066666667	0
bin	176.864	0
bin	176.89733333333	0
bin	176.93066666667	0
bin	176.964	0
bin	176.99733333333	0
bin	177.03066666667	0
bin	177.064	0
bin	177.09733333333	0
bin	177.13066666667	0
bin	177.164	0
bin	177.19733333333	0
bin	177.23066666667	0
bin	177.264	1
bin	177.29733333333	0
bin	177.33066666667	0
bin	177.364	0
bin	177.39733333333	0
bin	177.43066666667	0
bin	177.464	0
bin	177.49733333333	0
bin	177.53066666667	0
bin	177.564	0
bin	177.59733333333	0
bin	177.63066666667	0
bin	177.664	0
bin	177.69733333333	0
bin	177.73066666667	0
bin	177.764	0
statistic RandomGeometricGraph.rgnv[51] 	arrivalPerc:histogram
field count 1
field mean 1
field stddev nan
field sum 1
field sqrsum 1
field min 1
field max 1
attr interpolationmode  none
attr source  count(arrival)
attr title  "arrival perc, histogram"
bin	-INF	0
bin	0	0
bin	1	1
bin	2	0
statistic RandomGeometricGraph.rgnv[52] 	arrivalTime:histogram
field count 1
field mean 170.043
field stddev nan
field sum 170.043
field sqrsum 28914.621849
field min 170.043
field max 170.043
attr interpolationmode  none
attr source  arrivalTime
attr title  "arrival time, histogram"
bin	-INF	0
bin	169.543	0
bin	169.57633333333	0
bin	169.60966666667	0
bin	169.643	0
bin	169.67633333333	0
bin	169.70966666667	0
bin	169.743	0
bin	169.77633333333	0
bin	169.80966666667	0
bin	169.843	0
bin	169.87633333333	0
bin	169.90966666667	0
bin	169.943	0
bin	169.97633333333	0
bin	170.00966666667	0
bin	170.043	1
bin	170.07633333333	0
bin	170.10966666667	0
bin	170.143	0
bin	170.17633333333	0
bin	170.20966666667	0
bin	170.243	0
bin	170.27633333333	0
bin	170.30966666667	0
bin	170.343	0
bin	170.37633333333	0
bin	170.40966666667	0
bin	170.443	0
bin	170.47633333333	0
bin	170.50966666667	0
bin	170.543	0
statistic RandomGeometricGraph.rgnv[52] 	arrivalPerc:histogram
field count 1
field mean 1
field stddev nan
field sum 1
field sqrsum 1
field min 1
field max 1
attr interpolationmode  none
attr source  count(arrival)
attr title  "arrival perc, histogram"
bin	-INF	0
bin	0	0
bin	1	1
bin	2	0
statistic RandomGeometricGraph.rgnv[53] 	arrivalTime:histogram
field count 1
field mean 140.561
field stddev nan
field sum 140.561
field sqrsum 19757.394721
field min 140.561
field max 140.561
attr interpolationmode  none
attr source  arrivalTime
attr title  "arrival time, histogram"
bin	-INF	0
bin	140.061	0
bin	140.09433333333	0
bin	140.12766666667	0
bin	140.161	0
bin	140.19433333333	0
bin	140.22766666667	0
bin	140.261	0
bin	140.29433333333	0
bin	140.32766666667	0
bin	140.361	0
bin	140.39433333333	0
bin	140.42766666667	0
bin	140.461	0
bin	140.49433333333	0
bin	140.52766666667	0
bin	140.561	1
bin	140.59433333333	0
bin	140.62766666667	0
bin	140.661	0
bin	140.69433333333	0
bin	140.72766666667	0
bin	140.761	0
bin	140.79433333333	0
bin	140.82766666667	0
bin	140.861	0
bin	140.89433333333	0
bin	140.92766666667	0
bin	140.961	0
bin	140.99433333333	0
bin	141.02766666667	0
bin	141.061	0
statistic RandomGeometricGraph.rgnv[53] 	arrivalPerc:histogram
field count 1
field mean 1
field stddev nan
field sum 1
field sqrsum 1
field min 1
field max 1
attr interpolationmode  none
attr source  count(arrival)
attr title  "arrival perc, histogram"
bin	-INF	0
bin	0	0
bin	1	1
bin	2	0
statistic RandomGeometricGraph.rgnv[54] 	arrivalTime:histogram
field count 1
field mean 231.198
field stddev nan
field sum 231.198
field sqrsum 53452.515204
field min 231.198
field max 231.198
attr interpolationmode  none
attr source  arrivalTime
attr title  "arrival time, histogram"
bin	-INF	0
bin	230.698	0
bin	230.73133333333	0
bin	230.76466666667	0
bin	230.798	0
bin	230.83133333333	0
bin	230.86466666667	0
bin	230.898	0
bin	230.93133333333	0
bin	230.96466666667	0
bin	230.998	0
bin	231.03133333333	0
bin	231.06466666667	0
bin	231.098	0
bin	231.13133333333	0
bin	231.16466666667	0
bin	231.198	1
bin	231.23133333333	0
bin	231.26466666667	0
bin	231.298	0
bin	231.33133333333	0
bin	231.36466666667	0
bin	231.398	0
bin	231.43133333333	0
bin	231.46466666667	0
bin	231.498	0
bin	231.53133333333	0
bin	231.56466666667	0
bin	231.598	0
bin	231.63133333333	0
bin	231.66466666667	0
bin	231.698	0
statistic RandomGeometricGraph.rgnv[54] 	arrivalPerc:histogram
field count 1
field mean 1
field stddev nan
field sum 1
field sqrsum 1
field min 1
field max 1
attr interpolationmode  none
attr source  count(arrival)
attr title  "arrival perc, histogram"
bin	-INF	0
bin	0	0
bin	1	1
bin	2	0
statistic RandomGeometricGraph.rgnv[55] 	arrivalTime:histogram
field count 1
field mean 135.551
field stddev nan
field sum 135.551
field sqrsum 18374.073601
field min 135.551
field max 135.551
attr interpolationmode  none
attr source  arrivalTime
attr title  "arrival time, histogram"
bin	-INF	0
bin	135.051	0
bin	135.08433333333	0
bin	135.11766666667	0
bin	135.151	0
bin	135.18433333333	0
bin	135.21766666667	0
bin	135.251	0
bin	135.28433333333	0
bin	135.31766666667	0
bin	135.351	0
bin	135.38433333333	0
bin	135.41766666667	0
bin	135.451	0
bin	135.48433333333	0
bin	135.51766666667	0
bin	135.551	1
bin	135.58433333333	0
bin	135.61766666667	0
bin	135.651	0
bin	135.68433333333	0
bin	135.71766666667	0
bin	135.751	0
bin	135.78433333333	0
bin	135.81766666667	0
bin	135.851	0
bin	135.88433333333	0
bin	135.91766666667	0
bin	135.951	0
bin	135.98433333333	0
bin	136.01766666667	0
bin	136.051	0
statistic RandomGeometricGraph.rgnv[55] 	arrivalPerc:histogram
field count 1
field mean 1
field stddev nan
field sum 1
field sqrsum 1
field min 1
field max 1
attr interpolationmode  none
attr source  count(arrival)
attr title  "arrival perc, histogram"
bin	-INF	0
bin	0	0
bin	1	1
bin	2	0
statistic RandomGeometricGraph.rgnv[56] 	arrivalTime:histogram
field count 1
field mean 67.175
field stddev nan
field sum 67.175
field sqrsum 4512.480625
field min 67.175
field max 67.175
attr interpolationmode  none
attr source  arrivalTime
attr title  "arrival time, histogram"
bin	-INF	0
bin	66.675	0
bin	66.708333333333	0
bin	66.741666666667	0
bin	66.775	0
bin	66.808333333333	0
bin	66.841666666667	0
bin	66.875	0
bin	66.908333333333	0
bin	66.941666666667	0
bin	66.975	0
bin	67.008333333333	0
bin	67.041666666667	0
bin	67.075	0
bin	67.108333333333	0
bin	67.141666666667	0
bin	67.175	1
bin	67.208333333333	0
bin	67.241666666667	0
bin	67.275	0
bin	67.308333333333	0
bin	67.341666666667	0
bin	67.375	0
bin	67.408333333333	0
bin	67.441666666667	0
bin	67.475	0
bin	67.508333333333	0
bin	67.541666666667	0
bin	67.575	0
bin	67.608333333333	0
bin	67.641666666667	0
bin	67.675	0
statistic RandomGeometricGraph.rgnv[56] 	arrivalPerc:histogram
field count 1
field mean 1
field stddev nan
field sum 1
field sqrsum 1
field min 1
field max 1
attr interpolationmode  none
attr source  count(arrival)
attr title  "arrival perc, histogram"
bin	-INF	0
bin	0	0
bin	1	1
bin	2	0
statistic RandomGeometricGraph.rgnv[57] 	arrivalTime:histogram
field count 1
field mean 116.099
field stddev nan
field sum 116.099
field sqrsum 13478.977801
field min 116.099
field max 116.099
attr interpolationmode  none
attr source  arrivalTime
attr title  "arrival time, histogram"
bin	-INF	0
bin	115.599	0
bin	115.63233333333	0
bin	115.66566666667	0
bin	115.699	0
bin	115.73233333333	0
bin	115.76566666667	0
bin	115.799	0
bin	115.83233333333	0
bin	115.86566666667	0
bin	115.899	0
bin	115.93233333333	0
bin	115.96566666667	0
bin	115.999	0
bin	116.03233333333	0
bin	116.06566666667	0
bin	116.099	1
bin	116.13233333333	0
bin	116.16566666667	0
bin	116.199	0
bin	116.23233333333	0
bin	116.26566666667	0
bin	116.299	0
bin	116.33233333333	0
bin	116.36566666667	0
bin	116.399	0
bin	116.43233333333	0
bin	116.46566666667	0
bin	116.499	0
bin	116.53233333333	0
bin	116.56566666667	0
bin	116.599	0
statistic RandomGeometricGraph.rgnv[57] 	arrivalPerc:histogram
field count 1
field mean 1
field stddev nan
field sum 1
field sqrsum 1
field min 1
field max 1
attr interpolationmode  none
attr source  count(arrival)
attr title  "arrival perc, histogram"
bin	-INF	0
bin	0	0
bin	1	1
bin	2	0
statistic RandomGeometricGraph.rgnv[58] 	arrivalTime:histogram
field count 1
field mean 108.888
field stddev nan
field sum 108.888
field sqrsum 11856.596544
field min 108.888
field max 108.888
attr interpolationmode  none
attr source  arrivalTime
attr title  "arrival time, histogram"
bin	-INF	0
bin	108.388	0
bin	108.42133333333	0
bin	108.45466666667	0
bin	108.488	0
bin	108.52133333333	0
bin	108.55466666667	0
bin	108.588	0
bin	108.62133333333	0
bin	108.65466666667	0
bin	108.688	0
bin	108.72133333333	0
bin	108.75466666667	0
bin	108.788	0
bin	108.82133333333	0
bin	108.85466666667	0
bin	108.888	1
bin	108.92133333333	0
bin	108.95466666667	0
bin	108.988	0
bin	109.02133333333	0
bin	109.05466666667	0
bin	109.088	0
bin	109.12133333333	0
bin	109.15466666667	0
bin	109.188	0
bin	109.22133333333	0
bin	109.25466666667	0
bin	109.288	0
bin	109.32133333333	0
bin	109.35466666667	0
bin	109.388	0
statistic RandomGeometricGraph.rgnv[58] 	arrivalPerc:histogram
field count 1
field mean 1
field stddev nan
field sum 1
field sqrsum 1
field min 1
field max 1
attr interpolationmode  none
attr source  count(arrival)
attr title  "arrival perc, histogram"
bin	-INF	0
bin	0	0
bin	1	1
bin	2	0
statistic RandomGeometricGraph.rgnv[59] 	arrivalTime:histogram
field count 1
field mean 84.416
field stddev nan
field sum 84.416
field sqrsum 7126.061056
field min 84.416
field max 84.416
attr interpolationmode  none
attr source  arrivalTime
attr title  "arrival time, histogram"
bin	-INF	0
bin	83.916	0
bin	83.949333333333	0
bin	83.982666666667	0
bin	84.016	0
bin	84.049333333333	0
bin	84.082666666667	0
bin	84.116	0
bin	84.149333333333	0
bin	84.182666666667	0
bin	84.216	0
bin	84.249333333333	0
bin	84.282666666667	0
bin	84.316	0
bin	84.349333333333	0
bin	84.382666666667	0
bin	84.416	1
bin	84.449333333333	0
bin	84.482666666667	0
bin	84.516	0
bin	84.549333333333	0
bin	84.582666666667	0
bin	84.616	0
bin	84.649333333333	0
bin	84.682666666667	0
bin	84.716	0
bin	84.749333333333	0
bin	84.782666666667	0
bin	84.816	0
bin	84.849333333333	0
bin	84.882666666667	0
bin	84.916	0
statistic RandomGeometricGraph.rgnv[59] 	arrivalPerc:histogram
field count 1
field mean 1
field stddev nan
field sum 1
field sqrsum 1
field min 1
field max 1
attr interpolationmode  none
attr source  count(arrival)
attr title  "arrival perc, histogram"
bin	-INF	0
bin	0	0
bin	1	1
bin	2	0
statistic RandomGeometricGraph.rgnv[60] 	arrivalTime:histogram
field count 1
field mean 111.089
field stddev nan
field sum 111.089
field sqrsum 12340.765921
field min 111.089
field max 111.089
attr interpolationmode  none
attr source  arrivalTime
attr title  "arrival time, histogram"
bin	-INF	0
bin	110.589	0
bin	110.62233333333	0
bin	110.65566666667	0
bin	110.689	0
bin	110.72233333333	0
bin	110.75566666667	0
bin	110.789	0
bin	110.82233333333	0
bin	110.85566666667	0
bin	110.889	0
bin	110.92233333333	0
bin	110.95566666667	0
bin	110.989	0
bin	111.02233333333	0
bin	111.05566666667	0
bin	111.089	1
bin	111.12233333333	0
bin	111.15566666667	0
bin	111.189	0
bin	111.22233333333	0
bin	111.25566666667	0
bin	111.289	0
bin	111.32233333333	0
bin	111.35566666667	0
bin	111.389	0
bin	111.42233333333	0
bin	111.45566666667	0
bin	111.489	0
bin	111.52233333333	0
bin	111.55566666667	0
bin	111.589	0
statistic RandomGeometricGraph.rgnv[60] 	arrivalPerc:histogram
field count 1
field mean 1
field stddev nan
field sum 1
field sqrsum 1
field min 1
field max 1
attr interpolationmode  none
attr source  count(arrival)
attr title  "arrival perc, histogram"
bin	-INF	0
bin	0	0
bin	1	1
bin	2	0
statistic RandomGeometricGraph.rgnv[61] 	arrivalTime:histogram
field count 1
field mean 25.472
field stddev nan
field sum 25.472
field sqrsum 648.822784
field min 25.472
field max 25.472
attr interpolationmode  none
attr source  arrivalTime
attr title  "arrival time, histogram"
bin	-INF	0
bin	24.972	0
bin	25.005333333333	0
bin	25.038666666667	0
bin	25.072	0
bin	25.105333333333	0
bin	25.138666666667	0
bin	25.172	0
bin	25.205333333333	0
bin	25.238666666667	0
bin	25.272	0
bin	25.305333333333	0
bin	25.338666666667	0
bin	25.372	0
bin	25.405333333333	0
bin	25.438666666667	0
bin	25.472	1
bin	25.505333333333	0
bin	25.538666666667	0
bin	25.572	0
bin	25.605333333333	0
bin	25.638666666667	0
bin	25.672	0
bin	25.705333333333	0
bin	25.738666666667	0
bin	25.772	0
bin	25.805333333333	0
bin	25.838666666667	0
bin	25.872	0
bin	25.905333333333	0
bin	25.938666666667	0
bin	25.972	0
statistic RandomGeometricGraph.rgnv[61] 	arrivalPerc:histogram
field count 1
field mean 1
field stddev nan
field sum 1
field sqrsum 1
field min 1
field max 1
attr interpolationmode  none
attr source  count(arrival)
attr title  "arrival perc, histogram"
bin	-INF	0
bin	0	0
bin	1	1
bin	2	0
statistic RandomGeometricGraph.rgnv[62] 	arrivalTime:histogram
field count 1
field mean 150.571
field stddev nan
field sum 150.571
field sqrsum 22671.626041
field min 150.571
field max 150.571
attr interpolationmode  none
attr source  arrivalTime
attr title  "arrival time, histogram"
bin	-INF	0
bin	150.071	0
bin	150.10433333333	0
bin	150.13766666667	0
bin	150.171	0
bin	150.20433333333	0
bin	150.23766666667	0
bin	150.271	0
bin	150.30433333333	0
bin	150.33766666667	0
bin	150.371	0
bin	150.40433333333	0
bin	150.43766666667	0
bin	150.471	0
bin	150.50433333333	0
bin	150.53766666667	0
bin	150.571	1
bin	150.60433333333	0
bin	150.63766666667	0
bin	150.671	0
bin	150.70433333333	0
bin	150.73766666667	0
bin	150.771	0
bin	150.80433333333	0
bin	150.83766666667	0
bin	150.871	0
bin	150.90433333333	0
bin	150.93766666667	0
bin	150.971	0
bin	151.00433333333	0
bin	151.03766666667	0
bin	151.071	0
statistic RandomGeometricGraph.rgnv[62] 	arrivalPerc:histogram
field count 1
field mean 1
field stddev nan
field sum 1
field sqrsum 1
field min 1
field max 1
attr interpolationmode  none
attr source  count(arrival)
attr title  "arrival perc, histogram"
bin	-INF	0
bin	0	0
bin	1	1
bin	2	0
statistic RandomGeometricGraph.rgnv[63] 	arrivalTime:histogram
field count 1
field mean 138.35
field stddev nan
field sum 138.35
field sqrsum 19140.7225
field min 138.35
field max 138.35
attr interpolationmode  none
attr source  arrivalTime
attr title  "arrival time, histogram"
bin	-INF	0
bin	137.85	0
bin	137.88333333333	0
bin	137.91666666667	0
bin	137.95	0
bin	137.98333333333	0
bin	138.01666666667	0
bin	138.05	0
bin	138.08333333333	0
bin	138.11666666667	0
bin	138.15	0
bin	138.18333333333	0
bin	138.21666666667	0
bin	138.25	0
bin	138.28333333333	0
bin	138.31666666667	0
bin	138.35	1
bin	138.38333333333	0
bin	138.41666666667	0
bin	138.45	0
bin	138.48333333333	0
bin	138.51666666667	0
bin	138.55	0
bin	138.58333333333	0
bin	138.61666666667	0
bin	138.65	0
bin	138.68333333333	0
bin	138.71666666667	0
bin	138.75	0
bin	138.78333333333	0
bin	138.81666666667	0
bin	138.85	0
statistic RandomGeometricGraph.rgnv[63] 	arrivalPerc:histogram
field count 1
field mean 1
field stddev nan
field sum 1
field sqrsum 1
field min 1
field max 1
attr interpolationmode  none
attr source  count(arrival)
attr title  "arrival perc, histogram"
bin	-INF	0
bin	0	0
bin	1	1
bin	2	0
statistic RandomGeometricGraph.rgnv[64] 	arrivalTime:histogram
field count 1
field mean 150.571
field stddev nan
field sum 150.571
field sqrsum 22671.626041
field min 150.571
field max 150.571
attr interpolationmode  none
attr source  arrivalTime
attr title  "arrival time, histogram"
bin	-INF	0
bin	150.071	0
bin	150.10433333333	0
bin	150.13766666667	0
bin	150.171	0
bin	150.20433333333	0
bin	150.23766666667	0
bin	150.271	0
bin	150.30433333333	0
bin	150.33766666667	0
bin	150.371	0
bin	150.40433333333	0
bin	150.43766666667	0
bin	150.471	0
bin	150.50433333333	0
bin	150.53766666667	0
bin	150.571	1
bin	150.60433333333	0
bin	150.63766666667	0
bin	150.671	0
bin	150.70433333333	0
bin	150.73766666667	0
bin	150.771	0
bin	150.80433333333	0
bin	150.83766666667	0
bin	150.871	0
bin	150.90433333333	0
bin	150.93766666667	0
bin	150.971	0
bin	151.00433333333	0
bin	151.03766666667	0
bin	151.071	0
statistic RandomGeometricGraph.rgnv[64] 	arrivalPerc:histogram
field count 1
field mean 1
field stddev nan
field sum 1
field sqrsum 1
field min 1
field max 1
attr interpolationmode  none
attr source  count(arrival)
attr title  "arrival perc, histogram"
bin	-INF	0
bin	0	0
bin	1	1
bin	2	0
statistic RandomGeometricGraph.rgnv[65] 	arrivalTime:histogram
field count 1
field mean 140.571
field stddev nan
field sum 140.571
field sqrsum 19760.206041
field min 140.571
field max 140.571
attr interpolationmode  none
attr source  arrivalTime
attr title  "arrival time, histogram"
bin	-INF	0
bin	140.071	0
bin	140.10433333333	0
bin	140.13766666667	0
bin	140.171	0
bin	140.20433333333	0
bin	140.23766666667	0
bin	140.271	0
bin	140.30433333333	0
bin	140.33766666667	0
bin	140.371	0
bin	140.40433333333	0
bin	140.43766666667	0
bin	140.471	0
bin	140.50433333333	0
bin	140.53766666667	0
bin	140.571	1
bin	140.60433333333	0
bin	140.63766666667	0
bin	140.671	0
bin	140.70433333333	0
bin	140.73766666667	0
bin	140.771	0
bin	140.80433333333	0
bin	140.83766666667	0
bin	140.871	0
bin	140.90433333333	0
bin	140.93766666667	0
bin	140.971	0
bin	141.00433333333	0
bin	141.03766666667	0
bin	141.071	0
statistic RandomGeometricGraph.rgnv[65] 	arrivalPerc:histogram
field count 1
field mean 1
field stddev nan
field sum 1
field sqrsum 1
field min 1
field max 1
attr interpolationmode  none
attr source  count(arrival)
attr title  "arrival perc, histogram"
bin	-INF	0
bin	0	0
bin	1	1
bin	2	0
statistic RandomGeometricGraph.rgnv[66] 	arrivalTime:histogram
field count 1
field mean 160.033
field stddev nan
field sum 160.033
field sqrsum 25610.561089
field min 160.033
field max 160.033
attr interpolationmode  none
attr source  arrivalTime
attr title  "arrival time, histogram"
bin	-INF	0
bin	159.533	0
bin	159.56633333333	0
bin	159.59966666667	0
bin	159.633	0
bin	159.66633333333	0
bin	159.69966666667	0
bin	159.733	0
bin	159.76633333333	0
bin	159.79966666667	0
bin	159.833	0
bin	159.86633333333	0
bin	159.89966666667	0
[...]
attr title  "arrival perc, histogram"
bin	-INF	0
bin	0	0
bin	1	1
bin	2	0
statistic RandomGeometricGraph.rgnv[483] 	arrivalTime:histogram
field count 1
field mean 143.35
field stddev nan
field sum 143.35
field sqrsum 20549.2225
field min 143.35
field max 143.35
attr interpolationmode  none
attr source  arrivalTime
attr title  "arrival time, histogram"
bin	-INF	0
bin	142.85	0
bin	142.88333333333	0
bin	142.91666666667	0
bin	142.95	0
bin	142.98333333333	0
bin	143.01666666667	0
bin	143.05	0
bin	143.08333333333	0
bin	143.11666666667	0
bin	143.15	0
bin	143.18333333333	0
bin	143.21666666667	0
bin	143.25	0
bin	143.28333333333	0
bin	143.31666666667	0
bin	143.35	1
bin	143.38333333333	0
bin	143.41666666667	0
bin	143.45	0
bin	143.48333333333	0
bin	143.51666666667	0
bin	143.55	0
bin	143.58333333333	0
bin	143.61666666667	0
bin	143.65	0
bin	143.68333333333	0
bin	143.71666666667	0
bin	143.75	0
bin	143.78333333333	0
bin	143.81666666667	0
bin	143.85	0
statistic RandomGeometricGraph.rgnv[483] 	arrivalPerc:histogram
field count 1
field mean 1
field stddev nan
field sum 1
field sqrsum 1
field min 1
field max 1
attr interpolationmode  none
attr source  count(arrival)
attr title  "arrival perc, histogram"
bin	-INF	0
bin	0	0
bin	1	1
bin	2	0
statistic RandomGeometricGraph.rgnv[484] 	arrivalTime:histogram
field count 1
field mean 96.627
field stddev nan
field sum 96.627
field sqrsum 9336.777129
field min 96.627
field max 96.627
attr interpolationmode  none
attr source  arrivalTime
attr title  "arrival time, histogram"
bin	-INF	0
bin	96.127	0
bin	96.160333333333	0
bin	96.193666666667	0
bin	96.227	0
bin	96.260333333333	0
bin	96.293666666667	0
bin	96.327	0
bin	96.360333333333	0
bin	96.393666666667	0
bin	96.427	0
bin	96.460333333333	0
bin	96.493666666667	0
bin	96.527	0
bin	96.560333333333	0
bin	96.593666666667	0
bin	96.627	1
bin	96.660333333333	0
bin	96.693666666667	0
bin	96.727	0
bin	96.760333333333	0
bin	96.793666666667	0
bin	96.827	0
bin	96.860333333333	0
bin	96.893666666667	0
bin	96.927	0
bin	96.960333333333	0
bin	96.993666666667	0
bin	97.027	0
bin	97.060333333333	0
bin	97.093666666667	0
bin	97.127	0
statistic RandomGeometricGraph.rgnv[484] 	arrivalPerc:histogram
field count 1
field mean 1
field stddev nan
field sum 1
field sqrsum 1
field min 1
field max 1
attr interpolationmode  none
attr source  count(arrival)
attr title  "arrival perc, histogram"
bin	-INF	0
bin	0	0
bin	1	1
bin	2	0
statistic RandomGeometricGraph.rgnv[485] 	arrivalTime:histogram
field count 1
field mean 91.637
field stddev nan
field sum 91.637
field sqrsum 8397.339769
field min 91.637
field max 91.637
attr interpolationmode  none
attr source  arrivalTime
attr title  "arrival time, histogram"
bin	-INF	0
bin	91.137	0
bin	91.170333333333	0
bin	91.203666666667	0
bin	91.237	0
bin	91.270333333333	0
bin	91.303666666667	0
bin	91.337	0
bin	91.370333333333	0
bin	91.403666666667	0
bin	91.437	0
bin	91.470333333333	0
bin	91.503666666667	0
bin	91.537	0
bin	91.570333333333	0
bin	91.603666666667	0
bin	91.637	1
bin	91.670333333333	0
bin	91.703666666667	0
bin	91.737	0
bin	91.770333333333	0
bin	91.803666666667	0
bin	91.837	0
bin	91.870333333333	0
bin	91.903666666667	0
bin	91.937	0
bin	91.970333333333	0
bin	92.003666666667	0
bin	92.037	0
bin	92.070333333333	0
bin	92.103666666667	0
bin	92.137	0
statistic RandomGeometricGraph.rgnv[485] 	arrivalPerc:histogram
field count 1
field mean 1
field stddev nan
field sum 1
field sqrsum 1
field min 1
field max 1
attr interpolationmode  none
attr source  count(arrival)
attr title  "arrival perc, histogram"
bin	-INF	0
bin	0	0
bin	1	1
bin	2	0
statistic RandomGeometricGraph.rgnv[486] 	arrivalTime:histogram
field count 1
field mean 133.34
field stddev nan
field sum 133.34
field sqrsum 17779.5556
field min 133.34
field max 133.34
attr interpolationmode  none
attr source  arrivalTime
attr title  "arrival time, histogram"
bin	-INF	0
bin	132.84	0
bin	132.87333333333	0
bin	132.90666666667	0
bin	132.94	0
bin	132.97333333333	0
bin	133.00666666667	0
bin	133.04	0
bin	133.07333333333	0
bin	133.10666666667	0
bin	133.14	0
bin	133.17333333333	0
bin	133.20666666667	0
bin	133.24	0
bin	133.27333333333	0
bin	133.30666666667	0
bin	133.34	1
bin	133.37333333333	0
bin	133.40666666667	0
bin	133.44	0
bin	133.47333333333	0
bin	133.50666666667	0
bin	133.54	0
bin	133.57333333333	0
bin	133.60666666667	0
bin	133.64	0
bin	133.67333333333	0
bin	133.70666666667	0
bin	133.74	0
bin	133.77333333333	0
bin	133.80666666667	0
bin	133.84	0
statistic RandomGeometricGraph.rgnv[486] 	arrivalPerc:histogram
field count 1
field mean 1
field stddev nan
field sum 1
field sqrsum 1
field min 1
field max 1
attr interpolationmode  none
attr source  count(arrival)
attr title  "arrival perc, histogram"
bin	-INF	0
bin	0	0
bin	1	1
bin	2	0
statistic RandomGeometricGraph.rgnv[487] 	arrivalTime:histogram
field count 1
field mean 170.043
field stddev nan
field sum 170.043
field sqrsum 28914.621849
field min 170.043
field max 170.043
attr interpolationmode  none
attr source  arrivalTime
attr title  "arrival time, histogram"
bin	-INF	0
bin	169.543	0
bin	169.57633333333	0
bin	169.60966666667	0
bin	169.643	0
bin	169.67633333333	0
bin	169.70966666667	0
bin	169.743	0
bin	169.77633333333	0
bin	169.80966666667	0
bin	169.843	0
bin	169.87633333333	0
bin	169.90966666667	0
bin	169.943	0
bin	169.97633333333	0
bin	170.00966666667	0
bin	170.043	1
bin	170.07633333333	0
bin	170.10966666667	0
bin	170.143	0
bin	170.17633333333	0
bin	170.20966666667	0
bin	170.243	0
bin	170.27633333333	0
bin	170.30966666667	0
bin	170.343	0
bin	170.37633333333	0
bin	170.40966666667	0
bin	170.443	0
bin	170.47633333333	0
bin	170.50966666667	0
bin	170.543	0
statistic RandomGeometricGraph.rgnv[487] 	arrivalPerc:histogram
field count 1
field mean 1
field stddev nan
field sum 1
field sqrsum 1
field min 1
field max 1
attr interpolationmode  none
attr source  count(arrival)
attr title  "arrival perc, histogram"
bin	-INF	0
bin	0	0
bin	1	1
bin	2	0
statistic RandomGeometricGraph.rgnv[488] 	arrivalTime:histogram
field count 1
field mean 116.109
field stddev nan
field sum 116.109
field sqrsum 13481.299881
field min 116.109
field max 116.109
attr interpolationmode  none
attr source  arrivalTime
attr title  "arrival time, histogram"
bin	-INF	0
bin	115.609	0
bin	115.64233333333	0
bin	115.67566666667	0
bin	115.709	0
bin	115.74233333333	0
bin	115.77566666667	0
bin	115.809	0
bin	115.84233333333	0
bin	115.87566666667	0
bin	115.909	0
bin	115.94233333333	0
bin	115.97566666667	0
bin	116.009	0
bin	116.04233333333	0
bin	116.07566666667	0
bin	116.109	1
bin	116.14233333333	0
bin	116.17566666667	0
bin	116.209	0
bin	116.24233333333	0
bin	116.27566666667	0
bin	116.309	0
bin	116.34233333333	0
bin	116.37566666667	0
bin	116.409	0
bin	116.44233333333	0
bin	116.47566666667	0
bin	116.509	0
bin	116.54233333333	0
bin	116.57566666667	0
bin	116.609	0
statistic RandomGeometricGraph.rgnv[488] 	arrivalPerc:histogram
field count 1
field mean 1
field stddev nan
field sum 1
field sqrsum 1
field min 1
field max 1
attr interpolationmode  none
attr source  count(arrival)
attr title  "arrival perc, histogram"
bin	-INF	0
bin	0	0
bin	1	1
bin	2	0
statistic RandomGeometricGraph.rgnv[489] 	arrivalTime:histogram
field count 1
field mean 128.34
field stddev nan
field sum 128.34
field sqrsum 16471.1556
field min 128.34
field max 128.34
attr interpolationmode  none
attr source  arrivalTime
attr title  "arrival time, histogram"
bin	-INF	0
bin	127.84	0
bin	127.87333333333	0
bin	127.90666666667	0
bin	127.94	0
bin	127.97333333333	0
bin	128.00666666667	0
bin	128.04	0
bin	128.07333333333	0
bin	128.10666666667	0
bin	128.14	0
bin	128.17333333333	0
bin	128.20666666667	0
bin	128.24	0
bin	128.27333333333	0
bin	128.30666666667	0
bin	128.34	1
bin	128.37333333333	0
bin	128.40666666667	0
bin	128.44	0
bin	128.47333333333	0
bin	128.50666666667	0
bin	128.54	0
bin	128.57333333333	0
bin	128.60666666667	0
bin	128.64	0
bin	128.67333333333	0
bin	128.70666666667	0
bin	128.74	0
bin	128.77333333333	0
bin	128.80666666667	0
bin	128.84	0
statistic RandomGeometricGraph.rgnv[489] 	arrivalPerc:histogram
field count 1
field mean 1
field stddev nan
field sum 1
field sqrsum 1
field min 1
field max 1
attr interpolationmode  none
attr source  count(arrival)
attr title  "arrival perc, histogram"
bin	-INF	0
bin	0	0
bin	1	1
bin	2	0
statistic RandomGeometricGraph.rgnv[490] 	arrivalTime:histogram
field count 1
field mean 123.32
field stddev nan
field sum 123.32
field sqrsum 15207.8224
field min 123.32
field max 123.32
attr interpolationmode  none
attr source  arrivalTime
attr title  "arrival time, histogram"
bin	-INF	0
bin	122.82	0
bin	122.85333333333	0
bin	122.88666666667	0
bin	122.92	0
bin	122.95333333333	0
bin	122.98666666667	0
bin	123.02	0
bin	123.05333333333	0
bin	123.08666666667	0
bin	123.12	0
bin	123.15333333333	0
bin	123.18666666667	0
bin	123.22	0
bin	123.25333333333	0
bin	123.28666666667	0
bin	123.32	1
bin	123.35333333333	0
bin	123.38666666667	0
bin	123.42	0
bin	123.45333333333	0
bin	123.48666666667	0
bin	123.52	0
bin	123.55333333333	0
bin	123.58666666667	0
bin	123.62	0
bin	123.65333333333	0
bin	123.68666666667	0
bin	123.72	0
bin	123.75333333333	0
bin	123.78666666667	0
bin	123.82	0
statistic RandomGeometricGraph.rgnv[490] 	arrivalPerc:histogram
field count 1
field mean 1
field stddev nan
field sum 1
field sqrsum 1
field min 1
field max 1
attr interpolationmode  none
attr source  count(arrival)
attr title  "arrival perc, histogram"
bin	-INF	0
bin	0	0
bin	1	1
bin	2	0
statistic RandomGeometricGraph.rgnv[491] 	arrivalTime:histogram
field count 1
field mean 121.119
field stddev nan
field sum 121.119
field sqrsum 14669.812161
field min 121.119
field max 121.119
attr interpolationmode  none
attr source  arrivalTime
attr title  "arrival time, histogram"
bin	-INF	0
bin	120.619	0
bin	120.65233333333	0
bin	120.68566666667	0
bin	120.719	0
bin	120.75233333333	0
bin	120.78566666667	0
bin	120.819	0
bin	120.85233333333	0
bin	120.88566666667	0
bin	120.919	0
bin	120.95233333333	0
bin	120.98566666667	0
bin	121.019	0
bin	121.05233333333	0
bin	121.08566666667	0
bin	121.119	1
bin	121.15233333333	0
bin	121.18566666667	0
bin	121.219	0
bin	121.25233333333	0
bin	121.28566666667	0
bin	121.319	0
bin	121.35233333333	0
bin	121.38566666667	0
bin	121.419	0
bin	121.45233333333	0
bin	121.48566666667	0
bin	121.519	0
bin	121.55233333333	0
bin	121.58566666667	0
bin	121.619	0
statistic RandomGeometricGraph.rgnv[491] 	arrivalPerc:histogram
field count 1
field mean 1
field stddev nan
field sum 1
field sqrsum 1
field min 1
field max 1
attr interpolationmode  none
attr source  count(arrival)
attr title  "arrival perc, histogram"
bin	-INF	0
bin	0	0
bin	1	1
bin	2	0
statistic RandomGeometricGraph.rgnv[492] 	arrivalTime:histogram
field count 1
field mean 170.033
field stddev nan
field sum 170.033
field sqrsum 28911.221089
field min 170.033
field max 170.033
attr interpolationmode  none
attr source  arrivalTime
attr title  "arrival time, histogram"
bin	-INF	0
bin	169.533	0
bin	169.56633333333	0
bin	169.59966666667	0
bin	169.633	0
bin	169.66633333333	0
bin	169.69966666667	0
bin	169.733	0
bin	169.76633333333	0
bin	169.79966666667	0
bin	169.833	0
bin	169.86633333333	0
bin	169.89966666667	0
bin	169.933	0
bin	169.96633333333	0
bin	169.99966666667	0
bin	170.033	1
bin	170.06633333333	0
bin	170.09966666667	0
bin	170.133	0
bin	170.16633333333	0
bin	170.19966666667	0
bin	170.233	0
bin	170.26633333333	0
bin	170.29966666667	0
bin	170.333	0
bin	170.36633333333	0
bin	170.39966666667	0
bin	170.433	0
bin	170.46633333333	0
bin	170.49966666667	0
bin	170.533	0
statistic RandomGeometricGraph.rgnv[492] 	arrivalPerc:histogram
field count 1
field mean 1
field stddev nan
field sum 1
field sqrsum 1
field min 1
field max 1
attr interpolationmode  none
attr source  count(arrival)
attr title  "arrival perc, histogram"
bin	-INF	0
bin	0	0
bin	1	1
bin	2	0
statistic RandomGeometricGraph.rgnv[493] 	arrivalTime:histogram
field count 1
field mean 128.31
field stddev nan
field sum 128.31
field sqrsum 16463.4561
field min 128.31
field max 128.31
attr interpolationmode  none
attr source  arrivalTime
attr title  "arrival time, histogram"
bin	-INF	0
bin	127.81	0
bin	127.84333333333	0
bin	127.87666666667	0
bin	127.91	0
bin	127.94333333333	0
bin	127.97666666667	0
bin	128.01	0
bin	128.04333333333	0
bin	128.07666666667	0
bin	128.11	0
bin	128.14333333333	0
bin	128.17666666667	0
bin	128.21	0
bin	128.24333333333	0
bin	128.27666666667	0
bin	128.31	1
bin	128.34333333333	0
bin	128.37666666667	0
bin	128.41	0
bin	128.44333333333	0
bin	128.47666666667	0
bin	128.51	0
bin	128.54333333333	0
bin	128.57666666667	0
bin	128.61	0
bin	128.64333333333	0
bin	128.67666666667	0
bin	128.71	0
bin	128.74333333333	0
bin	128.77666666667	0
bin	128.81	0
statistic RandomGeometricGraph.rgnv[493] 	arrivalPerc:histogram
field count 1
field mean 1
field stddev nan
field sum 1
field sqrsum 1
field min 1
field max 1
attr interpolationmode  none
attr source  count(arrival)
attr title  "arrival perc, histogram"
bin	-INF	0
bin	0	0
bin	1	1
bin	2	0
statistic RandomGeometricGraph.rgnv[494] 	arrivalTime:histogram
field count 1
field mean 177.274
field stddev nan
field sum 177.274
field sqrsum 31426.071076
field min 177.274
field max 177.274
attr interpolationmode  none
attr source  arrivalTime
attr title  "arrival time, histogram"
bin	-INF	0
bin	176.774	0
bin	176.80733333333	0
bin	176.84066666667	0
bin	176.874	0
bin	176.90733333333	0
bin	176.94066666667	0
bin	176.974	0
bin	177.00733333333	0
bin	177.04066666667	0
bin	177.074	0
bin	177.10733333333	0
bin	177.14066666667	0
bin	177.174	0
bin	177.20733333333	0
bin	177.24066666667	0
bin	177.274	1
bin	177.30733333333	0
bin	177.34066666667	0
bin	177.374	0
bin	177.40733333333	0
bin	177.44066666667	0
bin	177.474	0
bin	177.50733333333	0
bin	177.54066666667	0
bin	177.574	0
bin	177.60733333333	0
bin	177.64066666667	0
bin	177.674	0
bin	177.70733333333	0
bin	177.74066666667	0
bin	177.774	0
statistic RandomGeometricGraph.rgnv[494] 	arrivalPerc:histogram
field count 1
field mean 1
field stddev nan
field sum 1
field sqrsum 1
field min 1
field max 1
attr interpolationmode  none
attr source  count(arrival)
attr title  "arrival perc, histogram"
bin	-INF	0
bin	0	0
bin	1	1
bin	2	0
statistic RandomGeometricGraph.rgnv[495] 	arrivalTime:histogram
field count 1
field mean 113.888
field stddev nan
field sum 113.888
field sqrsum 12970.476544
field min 113.888
field max 113.888
attr interpolationmode  none
attr source  arrivalTime
attr title  "arrival time, histogram"
bin	-INF	0
bin	113.388	0
bin	113.42133333333	0
bin	113.45466666667	0
bin	113.488	0
bin	113.52133333333	0
bin	113.55466666667	0
bin	113.588	0
bin	113.62133333333	0
bin	113.65466666667	0
bin	113.688	0
bin	113.72133333333	0
bin	113.75466666667	0
bin	113.788	0
bin	113.82133333333	0
bin	113.85466666667	0
bin	113.888	1
bin	113.92133333333	0
bin	113.95466666667	0
bin	113.988	0
bin	114.02133333333	0
bin	114.05466666667	0
bin	114.088	0
bin	114.12133333333	0
bin	114.15466666667	0
bin	114.188	0
bin	114.22133333333	0
bin	114.25466666667	0
bin	114.288	0
bin	114.32133333333	0
bin	114.35466666667	0
bin	114.388	0
statistic RandomGeometricGraph.rgnv[495] 	arrivalPerc:histogram
field count 1
field mean 1
field stddev nan
field sum 1
field sqrsum 1
field min 1
field max 1
attr interpolationmode  none
attr source  count(arrival)
attr title  "arrival perc, histogram"
bin	-INF	0
bin	0	0
bin	1	1
bin	2	0
statistic RandomGeometricGraph.rgnv[496] 	arrivalTime:histogram
field count 1
field mean 103.868
field stddev nan
field sum 103.868
field sqrsum 10788.561424
field min 103.868
field max 103.868
attr interpolationmode  none
attr source  arrivalTime
attr title  "arrival time, histogram"
bin	-INF	0
bin	103.368	0
bin	103.40133333333	0
bin	103.43466666667	0
bin	103.468	0
bin	103.50133333333	0
bin	103.53466666667	0
bin	103.568	0
bin	103.60133333333	0
bin	103.63466666667	0
bin	103.668	0
bin	103.70133333333	0
bin	103.73466666667	0
bin	103.768	0
bin	103.80133333333	0
bin	103.83466666667	0
bin	103.868	1
bin	103.90133333333	0
bin	103.93466666667	0
bin	103.968	0
bin	104.00133333333	0
bin	104.03466666667	0
bin	104.068	0
bin	104.10133333333	0
bin	104.13466666667	0
bin	104.168	0
bin	104.20133333333	0
bin	104.23466666667	0
bin	104.268	0
bin	104.30133333333	0
bin	104.33466666667	0
bin	104.368	0
statistic RandomGeometricGraph.rgnv[496] 	arrivalPerc:histogram
field count 1
field mean 1
field stddev nan
field sum 1
field sqrsum 1
field min 1
field max 1
attr interpolationmode  none
attr source  count(arrival)
attr title  "arrival perc, histogram"
bin	-INF	0
bin	0	0
bin	1	1
bin	2	0
statistic RandomGeometricGraph.rgnv[497] 	arrivalTime:histogram
field count 1
field mean 133.34
field stddev nan
field sum 133.34
field sqrsum 17779.5556
field min 133.34
field max 133.34
attr interpolationmode  none
attr source  arrivalTime
attr title  "arrival time, histogram"
bin	-INF	0
bin	132.84	0
bin	132.87333333333	0
bin	132.90666666667	0
bin	132.94	0
bin	132.97333333333	0
bin	133.00666666667	0
bin	133.04	0
bin	133.07333333333	0
bin	133.10666666667	0
bin	133.14	0
bin	133.17333333333	0
bin	133.20666666667	0
bin	133.24	0
bin	133.27333333333	0
bin	133.30666666667	0
bin	133.34	1
bin	133.37333333333	0
bin	133.40666666667	0
bin	133.44	0
bin	133.47333333333	0
bin	133.50666666667	0
bin	133.54	0
bin	133.57333333333	0
bin	133.60666666667	0
bin	133.64	0
bin	133.67333333333	0
bin	133.70666666667	0
bin	133.74	0
bin	133.77333333333	0
bin	133.80666666667	0
bin	133.84	0
statistic RandomGeometricGraph.rgnv[497] 	arrivalPerc:histogram
field count 1
field mean 1
field stddev nan
field sum 1
field sqrsum 1
field min 1
field max 1
attr interpolationmode  none
attr source  count(arrival)
attr title  "arrival perc, histogram"
bin	-INF	0
bin	0	0
bin	1	1
bin	2	0
statistic RandomGeometricGraph.rgnv[498] 	arrivalTime:histogram
field count 1
field mean 165.033
field stddev nan
field sum 165.033
field sqrsum 27235.891089
field min 165.033
field max 165.033
attr interpolationmode  none
attr source  arrivalTime
attr title  "arrival time, histogram"
bin	-INF	0
bin	164.533	0
bin	164.56633333333	0
bin	164.59966666667	0
bin	164.633	0
bin	164.66633333333	0
bin	164.69966666667	0
bin	164.733	0
bin	164.76633333333	0
bin	164.79966666667	0
bin	164.833	0
bin	164.86633333333	0
bin	164.89966666667	0
bin	164.933	0
bin	164.96633333333	0
bin	164.99966666667	0
bin	165.033	1
bin	165.06633333333	0
bin	165.09966666667	0
bin	165.133	0
bin	165.16633333333	0
bin	165.19966666667	0
bin	165.233	0
bin	165.26633333333	0
bin	165.29966666667	0
bin	165.333	0
bin	165.36633333333	0
bin	165.39966666667	0
bin	165.433	0
bin	165.46633333333	0
bin	165.49966666667	0
bin	165.533	0
statistic RandomGeometricGraph.rgnv[498] 	arrivalPerc:histogram
field count 1
field mean 1
field stddev nan
field sum 1
field sqrsum 1
field min 1
field max 1
attr interpolationmode  none
attr source  count(arrival)
attr title  "arrival perc, histogram"
bin	-INF	0
bin	0	0
bin	1	1
bin	2	0
statistic RandomGeometricGraph.rgnv[499] 	arrivalTime:histogram
field count 1
field mean 145.551
field stddev nan
field sum 145.551
field sqrsum 21185.093601
field min 145.551
field max 145.551
attr interpolationmode  none
attr source  arrivalTime
attr title  "arrival time, histogram"
bin	-INF	0
bin	145.051	0
bin	145.08433333333	0
bin	145.11766666667	0
bin	145.151	0
bin	145.18433333333	0
bin	145.21766666667	0
bin	145.251	0
bin	145.28433333333	0
bin	145.31766666667	0
bin	145.351	0
bin	145.38433333333	0
bin	145.41766666667	0
bin	145.451	0
bin	145.48433333333	0
bin	145.51766666667	0
bin	145.551	1
bin	145.58433333333	0
bin	145.61766666667	0
bin	145.651	0
bin	145.68433333333	0
bin	145.71766666667	0
bin	145.751	0
bin	145.78433333333	0
bin	145.81766666667	0
bin	145.851	0
bin	145.88433333333	0
bin	145.91766666667	0
bin	145.951	0
bin	145.98433333333	0
bin	146.01766666667	0
bin	146.051	0
statistic RandomGeometricGraph.rgnv[499] 	arrivalPerc:histogram
field count 1
field mean 1
field stddev nan
field sum 1
field sqrsum 1
field min 1
field max 1
attr interpolationmode  none
attr source  count(arrival)
attr title  "arrival perc, histogram"
bin	-INF	0
bin	0	0
bin	1	1
bin	2	0
