version 2
run rgg500-16-20170110-15:45:48-10876
attr configname rgg500
attr datetime 20170110-15:45:48
attr experiment rgg500
attr inifile iniFile/D002/omnetpp_15D002.ini
attr iterationvars ""
attr iterationvars2 $repetition=16
attr measurement ""
attr network blegossipprj.net.randomgeometricgraph.RandomGeometricGraph
attr processid 10876
attr repetition 16
attr replication #16
attr resultdir ../../results/D002/r15D002
attr runnumber 16
attr seedset 16
param RandomGeometricGraph.netSize 500
param RandomGeometricGraph.radius 15
param RandomGeometricGraph.rgnv[*].areaLength 158
param RandomGeometricGraph.rgnv[*].areaWidth 158

statistic RandomGeometricGraph.sc 	arrivalPercentage
field count 493
field mean 1
field stddev 0
field sum 493
field sqrsum 493
field min 1
field max 1
attr type  int
bin	-INF	0
bin	0	0
bin	1	493
bin	2	0
statistic RandomGeometricGraph.sc 	arrivalTime
field count 493
field mean 154.39521906694
field stddev 53.266572225011
field sum 76116.843
field sqrsum 13148041.886237
field min 0
field max 275.102
bin	-INF	0
bin	-51.939	0
bin	-45.0138	0
bin	-38.0886	0
bin	-31.1634	0
bin	-24.2382	0
bin	-17.313	0
bin	-10.3878	0
bin	-3.4626	1
bin	3.4626	0
bin	10.3878	1
bin	17.313	0
bin	24.2382	2
bin	31.1634	4
bin	38.0886	0
bin	45.0138	5
bin	51.939	3
bin	58.8642	6
bin	65.7894	8
bin	72.7146	15
bin	79.6398	5
bin	86.565	21
bin	93.4902	16
bin	100.4154	15
bin	107.3406	23
bin	114.2658	21
bin	121.191	13
bin	128.1162	22
bin	135.0414	21
bin	141.9666	16
bin	148.8918	17
bin	155.817	258
statistic RandomGeometricGraph.rgnv[0] 	arrivalTime:histogram
field count 1
field mean 147.782
field stddev nan
field sum 147.782
field sqrsum 21839.519524
field min 147.782
field max 147.782
attr interpolationmode  none
attr source  arrivalTime
attr title  "arrival time, histogram"
bin	-INF	0
bin	147.282	0
bin	147.31533333333	0
bin	147.34866666667	0
bin	147.382	0
bin	147.41533333333	0
bin	147.44866666667	0
bin	147.482	0
bin	147.51533333333	0
bin	147.54866666667	0
bin	147.582	0
bin	147.61533333333	0
bin	147.64866666667	0
bin	147.682	0
bin	147.71533333333	0
bin	147.74866666667	0
bin	147.782	1
bin	147.81533333333	0
bin	147.84866666667	0
bin	147.882	0
bin	147.91533333333	0
bin	147.94866666667	0
bin	147.982	0
bin	148.01533333333	0
bin	148.04866666667	0
bin	148.082	0
bin	148.11533333333	0
bin	148.14866666667	0
bin	148.182	0
bin	148.21533333333	0
bin	148.24866666667	0
bin	148.282	0
statistic RandomGeometricGraph.rgnv[0] 	arrivalPerc:histogram
field count 1
field mean 1
field stddev nan
field sum 1
field sqrsum 1
field min 1
field max 1
attr interpolationmode  none
attr source  count(arrival)
attr title  "arrival perc, histogram"
bin	-INF	0
bin	0	0
bin	1	1
bin	2	0
statistic RandomGeometricGraph.rgnv[1] 	arrivalTime:histogram
field count 1
field mean 218.957
field stddev nan
field sum 218.957
field sqrsum 47942.167849
field min 218.957
field max 218.957
attr interpolationmode  none
attr source  arrivalTime
attr title  "arrival time, histogram"
bin	-INF	0
bin	218.457	0
bin	218.49033333333	0
bin	218.52366666667	0
bin	218.557	0
bin	218.59033333333	0
bin	218.62366666667	0
bin	218.657	0
bin	218.69033333333	0
bin	218.72366666667	0
bin	218.757	0
bin	218.79033333333	0
bin	218.82366666667	0
bin	218.857	0
bin	218.89033333333	0
bin	218.92366666667	0
bin	218.957	1
bin	218.99033333333	0
bin	219.02366666667	0
bin	219.057	0
bin	219.09033333333	0
bin	219.12366666667	0
bin	219.157	0
bin	219.19033333333	0
bin	219.22366666667	0
bin	219.257	0
bin	219.29033333333	0
bin	219.32366666667	0
bin	219.357	0
bin	219.39033333333	0
bin	219.42366666667	0
bin	219.457	0
statistic RandomGeometricGraph.rgnv[1] 	arrivalPerc:histogram
field count 1
field mean 1
field stddev nan
field sum 1
field sqrsum 1
field min 1
field max 1
attr interpolationmode  none
attr source  count(arrival)
attr title  "arrival perc, histogram"
bin	-INF	0
bin	0	0
bin	1	1
bin	2	0
statistic RandomGeometricGraph.rgnv[2] 	arrivalTime:histogram
field count 1
field mean 147.812
field stddev nan
field sum 147.812
field sqrsum 21848.387344
field min 147.812
field max 147.812
attr interpolationmode  none
attr source  arrivalTime
attr title  "arrival time, histogram"
bin	-INF	0
bin	147.312	0
bin	147.34533333333	0
bin	147.37866666667	0
bin	147.412	0
bin	147.44533333333	0
bin	147.47866666667	0
bin	147.512	0
bin	147.54533333333	0
bin	147.57866666667	0
bin	147.612	0
bin	147.64533333333	0
bin	147.67866666667	0
bin	147.712	0
bin	147.74533333333	0
bin	147.77866666667	0
bin	147.812	1
bin	147.84533333333	0
bin	147.87866666667	0
bin	147.912	0
bin	147.94533333333	0
bin	147.97866666667	0
bin	148.012	0
bin	148.04533333333	0
bin	148.07866666667	0
bin	148.112	0
bin	148.14533333333	0
bin	148.17866666667	0
bin	148.212	0
bin	148.24533333333	0
bin	148.27866666667	0
bin	148.312	0
statistic RandomGeometricGraph.rgnv[2] 	arrivalPerc:histogram
field count 1
field mean 1
field stddev nan
field sum 1
field sqrsum 1
field min 1
field max 1
attr interpolationmode  none
attr source  count(arrival)
attr title  "arrival perc, histogram"
bin	-INF	0
bin	0	0
bin	1	1
bin	2	0
statistic RandomGeometricGraph.rgnv[3] 	arrivalTime:histogram
field count 1
field mean 187.284
field stddev nan
field sum 187.284
field sqrsum 35075.296656
field min 187.284
field max 187.284
attr interpolationmode  none
attr source  arrivalTime
attr title  "arrival time, histogram"
bin	-INF	0
bin	186.784	0
bin	186.81733333333	0
bin	186.85066666667	0
bin	186.884	0
bin	186.91733333333	0
bin	186.95066666667	0
bin	186.984	0
bin	187.01733333333	0
bin	187.05066666667	0
bin	187.084	0
bin	187.11733333333	0
bin	187.15066666667	0
bin	187.184	0
bin	187.21733333333	0
bin	187.25066666667	0
bin	187.284	1
bin	187.31733333333	0
bin	187.35066666667	0
bin	187.384	0
bin	187.41733333333	0
bin	187.45066666667	0
bin	187.484	0
bin	187.51733333333	0
bin	187.55066666667	0
bin	187.584	0
bin	187.61733333333	0
bin	187.65066666667	0
bin	187.684	0
bin	187.71733333333	0
bin	187.75066666667	0
bin	187.784	0
statistic RandomGeometricGraph.rgnv[3] 	arrivalPerc:histogram
field count 1
field mean 1
field stddev nan
field sum 1
field sqrsum 1
field min 1
field max 1
attr interpolationmode  none
attr source  count(arrival)
attr title  "arrival perc, histogram"
bin	-INF	0
bin	0	0
bin	1	1
bin	2	0
statistic RandomGeometricGraph.rgnv[4] 	arrivalTime:histogram
field count 1
field mean 62.175
field stddev nan
field sum 62.175
field sqrsum 3865.730625
field min 62.175
field max 62.175
attr interpolationmode  none
attr source  arrivalTime
attr title  "arrival time, histogram"
bin	-INF	0
bin	61.675	0
bin	61.708333333333	0
bin	61.741666666667	0
bin	61.775	0
bin	61.808333333333	0
bin	61.841666666667	0
bin	61.875	0
bin	61.908333333333	0
bin	61.941666666667	0
bin	61.975	0
bin	62.008333333333	0
bin	62.041666666667	0
bin	62.075	0
bin	62.108333333333	0
bin	62.141666666667	0
bin	62.175	1
bin	62.208333333333	0
bin	62.241666666667	0
bin	62.275	0
bin	62.308333333333	0
bin	62.341666666667	0
bin	62.375	0
bin	62.408333333333	0
bin	62.441666666667	0
bin	62.475	0
bin	62.508333333333	0
bin	62.541666666667	0
bin	62.575	0
bin	62.608333333333	0
bin	62.641666666667	0
bin	62.675	0
statistic RandomGeometricGraph.rgnv[4] 	arrivalPerc:histogram
field count 1
field mean 1
field stddev nan
field sum 1
field sqrsum 1
field min 1
field max 1
attr interpolationmode  none
attr source  count(arrival)
attr title  "arrival perc, histogram"
bin	-INF	0
bin	0	0
bin	1	1
bin	2	0
statistic RandomGeometricGraph.rgnv[5] 	arrivalTime:histogram
field count 1
field mean 218.947
field stddev nan
field sum 218.947
field sqrsum 47937.788809
field min 218.947
field max 218.947
attr interpolationmode  none
attr source  arrivalTime
attr title  "arrival time, histogram"
bin	-INF	0
bin	218.447	0
bin	218.48033333333	0
bin	218.51366666667	0
bin	218.547	0
bin	218.58033333333	0
bin	218.61366666667	0
bin	218.647	0
bin	218.68033333333	0
bin	218.71366666667	0
bin	218.747	0
bin	218.78033333333	0
bin	218.81366666667	0
bin	218.847	0
bin	218.88033333333	0
bin	218.91366666667	0
bin	218.947	1
bin	218.98033333333	0
bin	219.01366666667	0
bin	219.047	0
bin	219.08033333333	0
bin	219.11366666667	0
bin	219.147	0
bin	219.18033333333	0
bin	219.21366666667	0
bin	219.247	0
bin	219.28033333333	0
bin	219.31366666667	0
bin	219.347	0
bin	219.38033333333	0
bin	219.41366666667	0
bin	219.447	0
statistic RandomGeometricGraph.rgnv[5] 	arrivalPerc:histogram
field count 1
field mean 1
field stddev nan
field sum 1
field sqrsum 1
field min 1
field max 1
attr interpolationmode  none
attr source  count(arrival)
attr title  "arrival perc, histogram"
bin	-INF	0
bin	0	0
bin	1	1
bin	2	0
statistic RandomGeometricGraph.rgnv[6] 	arrivalTime:histogram
field count 1
field mean 91.647
field stddev nan
field sum 91.647
field sqrsum 8399.172609
field min 91.647
field max 91.647
attr interpolationmode  none
attr source  arrivalTime
attr title  "arrival time, histogram"
bin	-INF	0
bin	91.147	0
bin	91.180333333333	0
bin	91.213666666667	0
bin	91.247	0
bin	91.280333333333	0
bin	91.313666666667	0
bin	91.347	0
bin	91.380333333333	0
bin	91.413666666667	0
bin	91.447	0
bin	91.480333333333	0
bin	91.513666666667	0
bin	91.547	0
bin	91.580333333333	0
bin	91.613666666667	0
bin	91.647	1
bin	91.680333333333	0
bin	91.713666666667	0
bin	91.747	0
bin	91.780333333333	0
bin	91.813666666667	0
bin	91.847	0
bin	91.880333333333	0
bin	91.913666666667	0
bin	91.947	0
bin	91.980333333333	0
bin	92.013666666667	0
bin	92.047	0
bin	92.080333333333	0
bin	92.113666666667	0
bin	92.147	0
statistic RandomGeometricGraph.rgnv[6] 	arrivalPerc:histogram
field count 1
field mean 1
field stddev nan
field sum 1
field sqrsum 1
field min 1
field max 1
attr interpolationmode  none
attr source  count(arrival)
attr title  "arrival perc, histogram"
bin	-INF	0
bin	0	0
bin	1	1
bin	2	0
statistic RandomGeometricGraph.rgnv[7] 	arrivalTime:histogram
field count 1
field mean 111.079
field stddev nan
field sum 111.079
field sqrsum 12338.544241
field min 111.079
field max 111.079
attr interpolationmode  none
attr source  arrivalTime
attr title  "arrival time, histogram"
bin	-INF	0
bin	110.579	0
bin	110.61233333333	0
bin	110.64566666667	0
bin	110.679	0
bin	110.71233333333	0
bin	110.74566666667	0
bin	110.779	0
bin	110.81233333333	0
bin	110.84566666667	0
bin	110.879	0
bin	110.91233333333	0
bin	110.94566666667	0
bin	110.979	0
bin	111.01233333333	0
bin	111.04566666667	0
bin	111.079	1
bin	111.11233333333	0
bin	111.14566666667	0
bin	111.179	0
bin	111.21233333333	0
bin	111.24566666667	0
bin	111.279	0
bin	111.31233333333	0
bin	111.34566666667	0
bin	111.379	0
bin	111.41233333333	0
bin	111.44566666667	0
bin	111.479	0
bin	111.51233333333	0
bin	111.54566666667	0
bin	111.579	0
statistic RandomGeometricGraph.rgnv[7] 	arrivalPerc:histogram
field count 1
field mean 1
field stddev nan
field sum 1
field sqrsum 1
field min 1
field max 1
attr interpolationmode  none
attr source  count(arrival)
attr title  "arrival perc, histogram"
bin	-INF	0
bin	0	0
bin	1	1
bin	2	0
statistic RandomGeometricGraph.rgnv[8] 	arrivalTime:histogram
field count 1
field mean 192.284
field stddev nan
field sum 192.284
field sqrsum 36973.136656
field min 192.284
field max 192.284
attr interpolationmode  none
attr source  arrivalTime
attr title  "arrival time, histogram"
bin	-INF	0
bin	191.784	0
bin	191.81733333333	0
bin	191.85066666667	0
bin	191.884	0
bin	191.91733333333	0
bin	191.95066666667	0
bin	191.984	0
bin	192.01733333333	0
bin	192.05066666667	0
bin	192.084	0
bin	192.11733333333	0
bin	192.15066666667	0
bin	192.184	0
bin	192.21733333333	0
bin	192.25066666667	0
bin	192.284	1
bin	192.31733333333	0
bin	192.35066666667	0
bin	192.384	0
bin	192.41733333333	0
bin	192.45066666667	0
bin	192.484	0
bin	192.51733333333	0
bin	192.55066666667	0
bin	192.584	0
bin	192.61733333333	0
bin	192.65066666667	0
bin	192.684	0
bin	192.71733333333	0
bin	192.75066666667	0
bin	192.784	0
statistic RandomGeometricGraph.rgnv[8] 	arrivalPerc:histogram
field count 1
field mean 1
field stddev nan
field sum 1
field sqrsum 1
field min 1
field max 1
attr interpolationmode  none
attr source  count(arrival)
attr title  "arrival perc, histogram"
bin	-INF	0
bin	0	0
bin	1	1
bin	2	0
statistic RandomGeometricGraph.rgnv[9] 	arrivalTime:histogram
field count 1
field mean 116.119
field stddev nan
field sum 116.119
field sqrsum 13483.622161
field min 116.119
field max 116.119
attr interpolationmode  none
attr source  arrivalTime
attr title  "arrival time, histogram"
bin	-INF	0
bin	115.619	0
bin	115.65233333333	0
bin	115.68566666667	0
bin	115.719	0
bin	115.75233333333	0
bin	115.78566666667	0
bin	115.819	0
bin	115.85233333333	0
bin	115.88566666667	0
bin	115.919	0
bin	115.95233333333	0
bin	115.98566666667	0
bin	116.019	0
bin	116.05233333333	0
bin	116.08566666667	0
bin	116.119	1
bin	116.15233333333	0
bin	116.18566666667	0
bin	116.219	0
bin	116.25233333333	0
bin	116.28566666667	0
bin	116.319	0
bin	116.35233333333	0
bin	116.38566666667	0
bin	116.419	0
bin	116.45233333333	0
bin	116.48566666667	0
bin	116.519	0
bin	116.55233333333	0
bin	116.58566666667	0
bin	116.619	0
statistic RandomGeometricGraph.rgnv[9] 	arrivalPerc:histogram
field count 1
field mean 1
field stddev nan
field sum 1
field sqrsum 1
field min 1
field max 1
attr interpolationmode  none
attr source  count(arrival)
attr title  "arrival perc, histogram"
bin	-INF	0
bin	0	0
bin	1	1
bin	2	0
statistic RandomGeometricGraph.rgnv[10] 	arrivalTime:histogram
field count 1
field mean 189.475
field stddev nan
field sum 189.475
field sqrsum 35900.775625
field min 189.475
field max 189.475
attr interpolationmode  none
attr source  arrivalTime
attr title  "arrival time, histogram"
bin	-INF	0
bin	188.975	0
bin	189.00833333333	0
bin	189.04166666667	0
bin	189.075	0
bin	189.10833333333	0
bin	189.14166666667	0
bin	189.175	0
bin	189.20833333333	0
bin	189.24166666667	0
bin	189.275	0
bin	189.30833333333	0
bin	189.34166666667	0
bin	189.375	0
bin	189.40833333333	0
bin	189.44166666667	0
bin	189.475	1
bin	189.50833333333	0
bin	189.54166666667	0
bin	189.575	0
bin	189.60833333333	0
bin	189.64166666667	0
bin	189.675	0
bin	189.70833333333	0
bin	189.74166666667	0
bin	189.775	0
bin	189.80833333333	0
bin	189.84166666667	0
bin	189.875	0
bin	189.90833333333	0
bin	189.94166666667	0
bin	189.975	0
statistic RandomGeometricGraph.rgnv[10] 	arrivalPerc:histogram
field count 1
field mean 1
field stddev nan
field sum 1
field sqrsum 1
field min 1
field max 1
attr interpolationmode  none
attr source  count(arrival)
attr title  "arrival perc, histogram"
bin	-INF	0
bin	0	0
bin	1	1
bin	2	0
statistic RandomGeometricGraph.rgnv[11] 	arrivalTime:histogram
field count 1
field mean 135.571
field stddev nan
field sum 135.571
field sqrsum 18379.496041
field min 135.571
field max 135.571
attr interpolationmode  none
attr source  arrivalTime
attr title  "arrival time, histogram"
bin	-INF	0
bin	135.071	0
bin	135.10433333333	0
bin	135.13766666667	0
bin	135.171	0
bin	135.20433333333	0
bin	135.23766666667	0
bin	135.271	0
bin	135.30433333333	0
bin	135.33766666667	0
bin	135.371	0
bin	135.40433333333	0
bin	135.43766666667	0
bin	135.471	0
bin	135.50433333333	0
bin	135.53766666667	0
bin	135.571	1
bin	135.60433333333	0
bin	135.63766666667	0
bin	135.671	0
bin	135.70433333333	0
bin	135.73766666667	0
bin	135.771	0
bin	135.80433333333	0
bin	135.83766666667	0
bin	135.871	0
bin	135.90433333333	0
bin	135.93766666667	0
bin	135.971	0
bin	136.00433333333	0
bin	136.03766666667	0
bin	136.071	0
statistic RandomGeometricGraph.rgnv[11] 	arrivalPerc:histogram
field count 1
field mean 1
field stddev nan
field sum 1
field sqrsum 1
field min 1
field max 1
attr interpolationmode  none
attr source  count(arrival)
attr title  "arrival perc, histogram"
bin	-INF	0
bin	0	0
bin	1	1
bin	2	0
statistic RandomGeometricGraph.rgnv[12] 	arrivalTime:histogram
field count 1
field mean 86.637
field stddev nan
field sum 86.637
field sqrsum 7505.969769
field min 86.637
field max 86.637
attr interpolationmode  none
attr source  arrivalTime
attr title  "arrival time, histogram"
bin	-INF	0
bin	86.137	0
bin	86.170333333333	0
bin	86.203666666667	0
bin	86.237	0
bin	86.270333333333	0
bin	86.303666666667	0
bin	86.337	0
bin	86.370333333333	0
bin	86.403666666667	0
bin	86.437	0
bin	86.470333333333	0
bin	86.503666666667	0
bin	86.537	0
bin	86.570333333333	0
bin	86.603666666667	0
bin	86.637	1
bin	86.670333333333	0
bin	86.703666666667	0
bin	86.737	0
bin	86.770333333333	0
bin	86.803666666667	0
bin	86.837	0
bin	86.870333333333	0
bin	86.903666666667	0
bin	86.937	0
bin	86.970333333333	0
bin	87.003666666667	0
bin	87.037	0
bin	87.070333333333	0
bin	87.103666666667	0
bin	87.137	0
statistic RandomGeometricGraph.rgnv[12] 	arrivalPerc:histogram
field count 1
field mean 1
field stddev nan
field sum 1
field sqrsum 1
field min 1
field max 1
attr interpolationmode  none
attr source  count(arrival)
attr title  "arrival perc, histogram"
bin	-INF	0
bin	0	0
bin	1	1
bin	2	0
statistic RandomGeometricGraph.rgnv[13] 	arrivalTime:histogram
field count 1
field mean 62.155
field stddev nan
field sum 62.155
field sqrsum 3863.244025
field min 62.155
field max 62.155
attr interpolationmode  none
attr source  arrivalTime
attr title  "arrival time, histogram"
bin	-INF	0
bin	61.655	0
bin	61.688333333333	0
bin	61.721666666667	0
bin	61.755	0
bin	61.788333333333	0
bin	61.821666666667	0
bin	61.855	0
bin	61.888333333333	0
bin	61.921666666667	0
bin	61.955	0
bin	61.988333333333	0
bin	62.021666666667	0
bin	62.055	0
bin	62.088333333333	0
bin	62.121666666667	0
bin	62.155	1
bin	62.188333333333	0
bin	62.221666666667	0
bin	62.255	0
bin	62.288333333333	0
bin	62.321666666667	0
bin	62.355	0
bin	62.388333333333	0
bin	62.421666666667	0
bin	62.455	0
bin	62.488333333333	0
bin	62.521666666667	0
bin	62.555	0
bin	62.588333333333	0
bin	62.621666666667	0
bin	62.655	0
statistic RandomGeometricGraph.rgnv[13] 	arrivalPerc:histogram
field count 1
field mean 1
field stddev nan
field sum 1
field sqrsum 1
field min 1
field max 1
attr interpolationmode  none
attr source  count(arrival)
attr title  "arrival perc, histogram"
bin	-INF	0
bin	0	0
bin	1	1
bin	2	0
statistic RandomGeometricGraph.rgnv[14] 	arrivalTime:histogram
field count 1
field mean 128.34
field stddev nan
field sum 128.34
field sqrsum 16471.1556
field min 128.34
field max 128.34
attr interpolationmode  none
attr source  arrivalTime
attr title  "arrival time, histogram"
bin	-INF	0
bin	127.84	0
bin	127.87333333333	0
bin	127.90666666667	0
bin	127.94	0
bin	127.97333333333	0
bin	128.00666666667	0
bin	128.04	0
bin	128.07333333333	0
bin	128.10666666667	0
bin	128.14	0
bin	128.17333333333	0
bin	128.20666666667	0
bin	128.24	0
bin	128.27333333333	0
bin	128.30666666667	0
bin	128.34	1
bin	128.37333333333	0
bin	128.40666666667	0
bin	128.44	0
bin	128.47333333333	0
bin	128.50666666667	0
bin	128.54	0
bin	128.57333333333	0
bin	128.60666666667	0
bin	128.64	0
bin	128.67333333333	0
bin	128.70666666667	0
bin	128.74	0
bin	128.77333333333	0
bin	128.80666666667	0
bin	128.84	0
statistic RandomGeometricGraph.rgnv[14] 	arrivalPerc:histogram
field count 1
field mean 1
field stddev nan
field sum 1
field sqrsum 1
field min 1
field max 1
attr interpolationmode  none
attr source  count(arrival)
attr title  "arrival perc, histogram"
bin	-INF	0
bin	0	0
bin	1	1
bin	2	0
statistic RandomGeometricGraph.rgnv[15] 	arrivalTime:histogram
field count 1
field mean 167.822
field stddev nan
field sum 167.822
field sqrsum 28164.223684
field min 167.822
field max 167.822
attr interpolationmode  none
attr source  arrivalTime
attr title  "arrival time, histogram"
bin	-INF	0
bin	167.322	0
bin	167.35533333333	0
bin	167.38866666667	0
bin	167.422	0
bin	167.45533333333	0
bin	167.48866666667	0
bin	167.522	0
bin	167.55533333333	0
bin	167.58866666667	0
bin	167.622	0
bin	167.65533333333	0
bin	167.68866666667	0
bin	167.722	0
bin	167.75533333333	0
bin	167.78866666667	0
bin	167.822	1
bin	167.85533333333	0
bin	167.88866666667	0
bin	167.922	0
bin	167.95533333333	0
bin	167.98866666667	0
bin	168.022	0
bin	168.05533333333	0
bin	168.08866666667	0
bin	168.122	0
bin	168.15533333333	0
bin	168.18866666667	0
bin	168.222	0
bin	168.25533333333	0
bin	168.28866666667	0
bin	168.322	0
statistic RandomGeometricGraph.rgnv[15] 	arrivalPerc:histogram
field count 1
field mean 1
field stddev nan
field sum 1
field sqrsum 1
field min 1
field max 1
attr interpolationmode  none
attr source  count(arrival)
attr title  "arrival perc, histogram"
bin	-INF	0
bin	0	0
bin	1	1
bin	2	0
statistic RandomGeometricGraph.rgnv[16] 	arrivalTime:histogram
field count 1
field mean 123.32
field stddev nan
field sum 123.32
field sqrsum 15207.8224
field min 123.32
field max 123.32
attr interpolationmode  none
attr source  arrivalTime
attr title  "arrival time, histogram"
bin	-INF	0
bin	122.82	0
bin	122.85333333333	0
bin	122.88666666667	0
bin	122.92	0
bin	122.95333333333	0
bin	122.98666666667	0
bin	123.02	0
bin	123.05333333333	0
bin	123.08666666667	0
bin	123.12	0
bin	123.15333333333	0
bin	123.18666666667	0
bin	123.22	0
bin	123.25333333333	0
bin	123.28666666667	0
bin	123.32	1
bin	123.35333333333	0
bin	123.38666666667	0
bin	123.42	0
bin	123.45333333333	0
bin	123.48666666667	0
bin	123.52	0
bin	123.55333333333	0
bin	123.58666666667	0
bin	123.62	0
bin	123.65333333333	0
bin	123.68666666667	0
bin	123.72	0
bin	123.75333333333	0
bin	123.78666666667	0
bin	123.82	0
statistic RandomGeometricGraph.rgnv[16] 	arrivalPerc:histogram
field count 1
field mean 1
field stddev nan
field sum 1
field sqrsum 1
field min 1
field max 1
attr interpolationmode  none
attr source  count(arrival)
attr title  "arrival perc, histogram"
bin	-INF	0
bin	0	0
bin	1	1
bin	2	0
statistic RandomGeometricGraph.rgnv[17] 	arrivalTime:histogram
field count 1
field mean 182.274
field stddev nan
field sum 182.274
field sqrsum 33223.811076
field min 182.274
field max 182.274
attr interpolationmode  none
attr source  arrivalTime
attr title  "arrival time, histogram"
bin	-INF	0
bin	181.774	0
bin	181.80733333333	0
bin	181.84066666667	0
bin	181.874	0
bin	181.90733333333	0
bin	181.94066666667	0
bin	181.974	0
bin	182.00733333333	0
bin	182.04066666667	0
bin	182.074	0
bin	182.10733333333	0
bin	182.14066666667	0
bin	182.174	0
bin	182.20733333333	0
bin	182.24066666667	0
bin	182.274	1
bin	182.30733333333	0
bin	182.34066666667	0
bin	182.374	0
bin	182.40733333333	0
bin	182.44066666667	0
bin	182.474	0
bin	182.50733333333	0
bin	182.54066666667	0
bin	182.574	0
bin	182.60733333333	0
bin	182.64066666667	0
bin	182.674	0
bin	182.70733333333	0
bin	182.74066666667	0
bin	182.774	0
statistic RandomGeometricGraph.rgnv[17] 	arrivalPerc:histogram
field count 1
field mean 1
field stddev nan
field sum 1
field sqrsum 1
field min 1
field max 1
attr interpolationmode  none
attr source  count(arrival)
attr title  "arrival perc, histogram"
bin	-INF	0
bin	0	0
bin	1	1
bin	2	0
statistic RandomGeometricGraph.rgnv[18] 	arrivalTime:histogram
field count 1
field mean 157.792
field stddev nan
field sum 157.792
field sqrsum 24898.315264
field min 157.792
field max 157.792
attr interpolationmode  none
attr source  arrivalTime
attr title  "arrival time, histogram"
bin	-INF	0
bin	157.292	0
bin	157.32533333333	0
bin	157.35866666667	0
bin	157.392	0
bin	157.42533333333	0
bin	157.45866666667	0
bin	157.492	0
bin	157.52533333333	0
bin	157.55866666667	0
bin	157.592	0
bin	157.62533333333	0
bin	157.65866666667	0
bin	157.692	0
bin	157.72533333333	0
bin	157.75866666667	0
bin	157.792	1
bin	157.82533333333	0
bin	157.85866666667	0
bin	157.892	0
bin	157.92533333333	0
bin	157.95866666667	0
bin	157.992	0
bin	158.02533333333	0
bin	158.05866666667	0
bin	158.092	0
bin	158.12533333333	0
bin	158.15866666667	0
bin	158.192	0
bin	158.22533333333	0
bin	158.25866666667	0
bin	158.292	0
statistic RandomGeometricGraph.rgnv[18] 	arrivalPerc:histogram
field count 1
field mean 1
field stddev nan
field sum 1
field sqrsum 1
field min 1
field max 1
attr interpolationmode  none
attr source  count(arrival)
attr title  "arrival perc, histogram"
bin	-INF	0
bin	0	0
bin	1	1
bin	2	0
statistic RandomGeometricGraph.rgnv[19] 	arrivalTime:histogram
field count 1
field mean 86.617
field stddev nan
field sum 86.617
field sqrsum 7502.504689
field min 86.617
field max 86.617
attr interpolationmode  none
attr source  arrivalTime
attr title  "arrival time, histogram"
bin	-INF	0
bin	86.117	0
bin	86.150333333333	0
bin	86.183666666667	0
bin	86.217	0
bin	86.250333333333	0
bin	86.283666666667	0
bin	86.317	0
bin	86.350333333333	0
bin	86.383666666667	0
bin	86.417	0
bin	86.450333333333	0
bin	86.483666666667	0
bin	86.517	0
bin	86.550333333333	0
bin	86.583666666667	0
bin	86.617	1
bin	86.650333333333	0
bin	86.683666666667	0
bin	86.717	0
bin	86.750333333333	0
bin	86.783666666667	0
bin	86.817	0
bin	86.850333333333	0
bin	86.883666666667	0
bin	86.917	0
bin	86.950333333333	0
bin	86.983666666667	0
bin	87.017	0
bin	87.050333333333	0
bin	87.083666666667	0
bin	87.117	0
statistic RandomGeometricGraph.rgnv[19] 	arrivalPerc:histogram
field count 1
field mean 1
field stddev nan
field sum 1
field sqrsum 1
field min 1
field max 1
attr interpolationmode  none
attr source  count(arrival)
attr title  "arrival perc, histogram"
bin	-INF	0
bin	0	0
bin	1	1
bin	2	0
statistic RandomGeometricGraph.rgnv[20] 	arrivalTime:histogram
field count 1
field mean 208.947
field stddev nan
field sum 208.947
field sqrsum 43658.848809
field min 208.947
field max 208.947
attr interpolationmode  none
attr source  arrivalTime
attr title  "arrival time, histogram"
bin	-INF	0
bin	208.447	0
bin	208.48033333333	0
bin	208.51366666667	0
bin	208.547	0
bin	208.58033333333	0
bin	208.61366666667	0
bin	208.647	0
bin	208.68033333333	0
bin	208.71366666667	0
bin	208.747	0
bin	208.78033333333	0
bin	208.81366666667	0
bin	208.847	0
bin	208.88033333333	0
bin	208.91366666667	0
bin	208.947	1
bin	208.98033333333	0
bin	209.01366666667	0
bin	209.047	0
bin	209.08033333333	0
bin	209.11366666667	0
bin	209.147	0
bin	209.18033333333	0
bin	209.21366666667	0
bin	209.247	0
bin	209.28033333333	0
bin	209.31366666667	0
bin	209.347	0
bin	209.38033333333	0
bin	209.41366666667	0
bin	209.447	0
statistic RandomGeometricGraph.rgnv[20] 	arrivalPerc:histogram
field count 1
field mean 1
field stddev nan
field sum 1
field sqrsum 1
field min 1
field max 1
attr interpolationmode  none
attr source  count(arrival)
attr title  "arrival perc, histogram"
bin	-INF	0
bin	0	0
bin	1	1
bin	2	0
statistic RandomGeometricGraph.rgnv[21] 	arrivalTime:histogram
field count 1
field mean 209.525
field stddev nan
field sum 209.525
field sqrsum 43900.725625
field min 209.525
field max 209.525
attr interpolationmode  none
attr source  arrivalTime
attr title  "arrival time, histogram"
bin	-INF	0
bin	209.025	0
bin	209.05833333333	0
bin	209.09166666667	0
bin	209.125	0
bin	209.15833333333	0
bin	209.19166666667	0
bin	209.225	0
bin	209.25833333333	0
bin	209.29166666667	0
bin	209.325	0
bin	209.35833333333	0
bin	209.39166666667	0
bin	209.425	0
bin	209.45833333333	0
bin	209.49166666667	0
bin	209.525	1
bin	209.55833333333	0
bin	209.59166666667	0
bin	209.625	0
bin	209.65833333333	0
bin	209.69166666667	0
bin	209.725	0
bin	209.75833333333	0
bin	209.79166666667	0
bin	209.825	0
bin	209.85833333333	0
bin	209.89166666667	0
bin	209.925	0
bin	209.95833333333	0
bin	209.99166666667	0
bin	210.025	0
statistic RandomGeometricGraph.rgnv[21] 	arrivalPerc:histogram
field count 1
field mean 1
field stddev nan
field sum 1
field sqrsum 1
field min 1
field max 1
attr interpolationmode  none
attr source  count(arrival)
attr title  "arrival perc, histogram"
bin	-INF	0
bin	0	0
bin	1	1
bin	2	0
statistic RandomGeometricGraph.rgnv[22] 	arrivalTime:histogram
field count 1
field mean 147.792
field stddev nan
field sum 147.792
field sqrsum 21842.475264
field min 147.792
field max 147.792
attr interpolationmode  none
attr source  arrivalTime
attr title  "arrival time, histogram"
bin	-INF	0
bin	147.292	0
bin	147.32533333333	0
bin	147.35866666667	0
bin	147.392	0
bin	147.42533333333	0
bin	147.45866666667	0
bin	147.492	0
bin	147.52533333333	0
bin	147.55866666667	0
bin	147.592	0
bin	147.62533333333	0
bin	147.65866666667	0
bin	147.692	0
bin	147.72533333333	0
bin	147.75866666667	0
bin	147.792	1
bin	147.82533333333	0
bin	147.85866666667	0
bin	147.892	0
bin	147.92533333333	0
bin	147.95866666667	0
bin	147.992	0
bin	148.02533333333	0
bin	148.05866666667	0
bin	148.092	0
bin	148.12533333333	0
bin	148.15866666667	0
bin	148.192	0
bin	148.22533333333	0
bin	148.25866666667	0
bin	148.292	0
statistic RandomGeometricGraph.rgnv[22] 	arrivalPerc:histogram
field count 1
field mean 1
field stddev nan
field sum 1
field sqrsum 1
field min 1
field max 1
attr interpolationmode  none
attr source  count(arrival)
attr title  "arrival perc, histogram"
bin	-INF	0
bin	0	0
bin	1	1
bin	2	0
statistic RandomGeometricGraph.rgnv[23] 	arrivalTime:histogram
field count 1
field mean 194.505
field stddev nan
field sum 194.505
field sqrsum 37832.195025
field min 194.505
field max 194.505
attr interpolationmode  none
attr source  arrivalTime
attr title  "arrival time, histogram"
bin	-INF	0
bin	194.005	0
bin	194.03833333333	0
bin	194.07166666667	0
bin	194.105	0
bin	194.13833333333	0
bin	194.17166666667	0
bin	194.205	0
bin	194.23833333333	0
bin	194.27166666667	0
bin	194.305	0
bin	194.33833333333	0
bin	194.37166666667	0
bin	194.405	0
bin	194.43833333333	0
bin	194.47166666667	0
bin	194.505	1
bin	194.53833333333	0
bin	194.57166666667	0
bin	194.605	0
bin	194.63833333333	0
bin	194.67166666667	0
bin	194.705	0
bin	194.73833333333	0
bin	194.77166666667	0
bin	194.805	0
bin	194.83833333333	0
bin	194.87166666667	0
bin	194.905	0
bin	194.93833333333	0
bin	194.97166666667	0
bin	195.005	0
statistic RandomGeometricGraph.rgnv[23] 	arrivalPerc:histogram
field count 1
field mean 1
field stddev nan
field sum 1
field sqrsum 1
field min 1
field max 1
attr interpolationmode  none
attr source  count(arrival)
attr title  "arrival perc, histogram"
bin	-INF	0
bin	0	0
bin	1	1
bin	2	0
statistic RandomGeometricGraph.rgnv[24] 	arrivalTime:histogram
field count 1
field mean 121.099
field stddev nan
field sum 121.099
field sqrsum 14664.967801
field min 121.099
field max 121.099
attr interpolationmode  none
attr source  arrivalTime
attr title  "arrival time, histogram"
bin	-INF	0
bin	120.599	0
bin	120.63233333333	0
bin	120.66566666667	0
bin	120.699	0
bin	120.73233333333	0
bin	120.76566666667	0
bin	120.799	0
bin	120.83233333333	0
bin	120.86566666667	0
bin	120.899	0
bin	120.93233333333	0
bin	120.96566666667	0
bin	120.999	0
bin	121.03233333333	0
bin	121.06566666667	0
bin	121.099	1
bin	121.13233333333	0
bin	121.16566666667	0
bin	121.199	0
bin	121.23233333333	0
bin	121.26566666667	0
bin	121.299	0
bin	121.33233333333	0
bin	121.36566666667	0
bin	121.399	0
bin	121.43233333333	0
bin	121.46566666667	0
bin	121.499	0
bin	121.53233333333	0
bin	121.56566666667	0
bin	121.599	0
statistic RandomGeometricGraph.rgnv[24] 	arrivalPerc:histogram
field count 1
field mean 1
field stddev nan
field sum 1
field sqrsum 1
field min 1
field max 1
attr interpolationmode  none
attr source  count(arrival)
attr title  "arrival perc, histogram"
bin	-INF	0
bin	0	0
bin	1	1
bin	2	0
statistic RandomGeometricGraph.rgnv[25] 	arrivalTime:histogram
field count 1
field mean 236.218
field stddev nan
field sum 236.218
field sqrsum 55798.943524
field min 236.218
field max 236.218
attr interpolationmode  none
attr source  arrivalTime
attr title  "arrival time, histogram"
bin	-INF	0
bin	235.718	0
bin	235.75133333333	0
bin	235.78466666667	0
bin	235.818	0
bin	235.85133333333	0
bin	235.88466666667	0
bin	235.918	0
bin	235.95133333333	0
bin	235.98466666667	0
bin	236.018	0
bin	236.05133333333	0
bin	236.08466666667	0
bin	236.118	0
bin	236.15133333333	0
bin	236.18466666667	0
bin	236.218	1
bin	236.25133333333	0
bin	236.28466666667	0
bin	236.318	0
bin	236.35133333333	0
bin	236.38466666667	0
bin	236.418	0
bin	236.45133333333	0
bin	236.48466666667	0
bin	236.518	0
bin	236.55133333333	0
bin	236.58466666667	0
bin	236.618	0
bin	236.65133333333	0
bin	236.68466666667	0
bin	236.718	0
statistic RandomGeometricGraph.rgnv[25] 	arrivalPerc:histogram
field count 1
field mean 1
field stddev nan
field sum 1
field sqrsum 1
field min 1
field max 1
attr interpolationmode  none
attr source  count(arrival)
attr title  "arrival perc, histogram"
bin	-INF	0
bin	0	0
bin	1	1
bin	2	0
statistic RandomGeometricGraph.rgnv[26] 	arrivalTime:histogram
field count 1
field mean 170.053
field stddev nan
field sum 170.053
field sqrsum 28918.022809
field min 170.053
field max 170.053
attr interpolationmode  none
attr source  arrivalTime
attr title  "arrival time, histogram"
bin	-INF	0
bin	169.553	0
bin	169.58633333333	0
bin	169.61966666667	0
bin	169.653	0
bin	169.68633333333	0
bin	169.71966666667	0
bin	169.753	0
bin	169.78633333333	0
bin	169.81966666667	0
bin	169.853	0
bin	169.88633333333	0
bin	169.91966666667	0
bin	169.953	0
bin	169.98633333333	0
bin	170.01966666667	0
bin	170.053	1
bin	170.08633333333	0
bin	170.11966666667	0
bin	170.153	0
bin	170.18633333333	0
bin	170.21966666667	0
bin	170.253	0
bin	170.28633333333	0
bin	170.31966666667	0
bin	170.353	0
bin	170.38633333333	0
bin	170.41966666667	0
bin	170.453	0
bin	170.48633333333	0
bin	170.51966666667	0
bin	170.553	0
statistic RandomGeometricGraph.rgnv[26] 	arrivalPerc:histogram
field count 1
field mean 1
field stddev nan
field sum 1
field sqrsum 1
field min 1
field max 1
attr interpolationmode  none
attr source  count(arrival)
attr title  "arrival perc, histogram"
bin	-INF	0
bin	0	0
bin	1	1
bin	2	0
statistic RandomGeometricGraph.rgnv[27] 	arrivalTime:histogram
field count 1
field mean 157.812
field stddev nan
field sum 157.812
field sqrsum 24904.627344
field min 157.812
field max 157.812
attr interpolationmode  none
attr source  arrivalTime
attr title  "arrival time, histogram"
bin	-INF	0
bin	157.312	0
bin	157.34533333333	0
bin	157.37866666667	0
bin	157.412	0
bin	157.44533333333	0
bin	157.47866666667	0
bin	157.512	0
bin	157.54533333333	0
bin	157.57866666667	0
bin	157.612	0
bin	157.64533333333	0
bin	157.67866666667	0
bin	157.712	0
bin	157.74533333333	0
bin	157.77866666667	0
bin	157.812	1
bin	157.84533333333	0
bin	157.87866666667	0
bin	157.912	0
bin	157.94533333333	0
bin	157.97866666667	0
bin	158.012	0
bin	158.04533333333	0
bin	158.07866666667	0
bin	158.112	0
bin	158.14533333333	0
bin	158.17866666667	0
bin	158.212	0
bin	158.24533333333	0
bin	158.27866666667	0
bin	158.312	0
statistic RandomGeometricGraph.rgnv[27] 	arrivalPerc:histogram
field count 1
field mean 1
field stddev nan
field sum 1
field sqrsum 1
field min 1
field max 1
attr interpolationmode  none
attr source  count(arrival)
attr title  "arrival perc, histogram"
bin	-INF	0
bin	0	0
bin	1	1
bin	2	0
statistic RandomGeometricGraph.rgnv[28] 	arrivalTime:histogram
field count 1
field mean 167.822
field stddev nan
field sum 167.822
field sqrsum 28164.223684
field min 167.822
field max 167.822
attr interpolationmode  none
attr source  arrivalTime
attr title  "arrival time, histogram"
bin	-INF	0
bin	167.322	0
bin	167.35533333333	0
bin	167.38866666667	0
bin	167.422	0
bin	167.45533333333	0
bin	167.48866666667	0
bin	167.522	0
bin	167.55533333333	0
bin	167.58866666667	0
bin	167.622	0
bin	167.65533333333	0
bin	167.68866666667	0
bin	167.722	0
bin	167.75533333333	0
bin	167.78866666667	0
bin	167.822	1
bin	167.85533333333	0
bin	167.88866666667	0
bin	167.922	0
bin	167.95533333333	0
bin	167.98866666667	0
bin	168.022	0
bin	168.05533333333	0
bin	168.08866666667	0
bin	168.122	0
bin	168.15533333333	0
bin	168.18866666667	0
bin	168.222	0
bin	168.25533333333	0
bin	168.28866666667	0
bin	168.322	0
statistic RandomGeometricGraph.rgnv[28] 	arrivalPerc:histogram
field count 1
field mean 1
field stddev nan
field sum 1
field sqrsum 1
field min 1
field max 1
attr interpolationmode  none
attr source  count(arrival)
attr title  "arrival perc, histogram"
bin	-INF	0
bin	0	0
bin	1	1
bin	2	0
statistic RandomGeometricGraph.rgnv[29] 	arrivalTime:histogram
field count 1
field mean 111.109
field stddev nan
field sum 111.109
field sqrsum 12345.209881
field min 111.109
field max 111.109
attr interpolationmode  none
attr source  arrivalTime
attr title  "arrival time, histogram"
bin	-INF	0
bin	110.609	0
bin	110.64233333333	0
bin	110.67566666667	0
bin	110.709	0
bin	110.74233333333	0
bin	110.77566666667	0
bin	110.809	0
bin	110.84233333333	0
bin	110.87566666667	0
bin	110.909	0
bin	110.94233333333	0
bin	110.97566666667	0
bin	111.009	0
bin	111.04233333333	0
bin	111.07566666667	0
bin	111.109	1
bin	111.14233333333	0
bin	111.17566666667	0
bin	111.209	0
bin	111.24233333333	0
bin	111.27566666667	0
bin	111.309	0
bin	111.34233333333	0
bin	111.37566666667	0
bin	111.409	0
bin	111.44233333333	0
bin	111.47566666667	0
bin	111.509	0
bin	111.54233333333	0
bin	111.57566666667	0
bin	111.609	0
statistic RandomGeometricGraph.rgnv[29] 	arrivalPerc:histogram
field count 1
field mean 1
field stddev nan
field sum 1
field sqrsum 1
field min 1
field max 1
attr interpolationmode  none
attr source  count(arrival)
attr title  "arrival perc, histogram"
bin	-INF	0
bin	0	0
bin	1	1
bin	2	0
statistic RandomGeometricGraph.rgnv[30] 	arrivalTime:histogram
field count 1
field mean 135.561
field stddev nan
field sum 135.561
field sqrsum 18376.784721
field min 135.561
field max 135.561
attr interpolationmode  none
attr source  arrivalTime
attr title  "arrival time, histogram"
bin	-INF	0
bin	135.061	0
bin	135.09433333333	0
bin	135.12766666667	0
bin	135.161	0
bin	135.19433333333	0
bin	135.22766666667	0
bin	135.261	0
bin	135.29433333333	0
bin	135.32766666667	0
bin	135.361	0
bin	135.39433333333	0
bin	135.42766666667	0
bin	135.461	0
bin	135.49433333333	0
bin	135.52766666667	0
bin	135.561	1
bin	135.59433333333	0
bin	135.62766666667	0
bin	135.661	0
bin	135.69433333333	0
bin	135.72766666667	0
bin	135.761	0
bin	135.79433333333	0
bin	135.82766666667	0
bin	135.861	0
bin	135.89433333333	0
bin	135.92766666667	0
bin	135.961	0
bin	135.99433333333	0
bin	136.02766666667	0
bin	136.061	0
statistic RandomGeometricGraph.rgnv[30] 	arrivalPerc:histogram
field count 1
field mean 1
field stddev nan
field sum 1
field sqrsum 1
field min 1
field max 1
attr interpolationmode  none
attr source  count(arrival)
attr title  "arrival perc, histogram"
bin	-INF	0
bin	0	0
bin	1	1
bin	2	0
statistic RandomGeometricGraph.rgnv[31] 	arrivalTime:histogram
field count 1
field mean 140.581
field stddev nan
field sum 140.581
field sqrsum 19763.017561
field min 140.581
field max 140.581
attr interpolationmode  none
attr source  arrivalTime
attr title  "arrival time, histogram"
bin	-INF	0
bin	140.081	0
bin	140.11433333333	0
bin	140.14766666667	0
bin	140.181	0
bin	140.21433333333	0
bin	140.24766666667	0
bin	140.281	0
bin	140.31433333333	0
bin	140.34766666667	0
bin	140.381	0
bin	140.41433333333	0
bin	140.44766666667	0
bin	140.481	0
bin	140.51433333333	0
bin	140.54766666667	0
bin	140.581	1
bin	140.61433333333	0
bin	140.64766666667	0
bin	140.681	0
bin	140.71433333333	0
bin	140.74766666667	0
bin	140.781	0
bin	140.81433333333	0
bin	140.84766666667	0
bin	140.881	0
bin	140.91433333333	0
bin	140.94766666667	0
bin	140.981	0
bin	141.01433333333	0
bin	141.04766666667	0
bin	141.081	0
statistic RandomGeometricGraph.rgnv[31] 	arrivalPerc:histogram
field count 1
field mean 1
field stddev nan
field sum 1
field sqrsum 1
field min 1
field max 1
attr interpolationmode  none
attr source  count(arrival)
attr title  "arrival perc, histogram"
bin	-INF	0
bin	0	0
bin	1	1
bin	2	0
statistic RandomGeometricGraph.rgnv[32] 	arrivalTime:histogram
field count 1
field mean 213.947
field stddev nan
field sum 213.947
field sqrsum 45773.318809
field min 213.947
field max 213.947
attr interpolationmode  none
attr source  arrivalTime
attr title  "arrival time, histogram"
bin	-INF	0
bin	213.447	0
bin	213.48033333333	0
bin	213.51366666667	0
bin	213.547	0
bin	213.58033333333	0
bin	213.61366666667	0
bin	213.647	0
bin	213.68033333333	0
bin	213.71366666667	0
bin	213.747	0
bin	213.78033333333	0
bin	213.81366666667	0
bin	213.847	0
bin	213.88033333333	0
bin	213.91366666667	0
bin	213.947	1
bin	213.98033333333	0
bin	214.01366666667	0
bin	214.047	0
bin	214.08033333333	0
bin	214.11366666667	0
bin	214.147	0
bin	214.18033333333	0
bin	214.21366666667	0
bin	214.247	0
bin	214.28033333333	0
bin	214.31366666667	0
bin	214.347	0
bin	214.38033333333	0
bin	214.41366666667	0
bin	214.447	0
statistic RandomGeometricGraph.rgnv[32] 	arrivalPerc:histogram
field count 1
field mean 1
field stddev nan
field sum 1
field sqrsum 1
field min 1
field max 1
attr interpolationmode  none
attr source  count(arrival)
attr title  "arrival perc, histogram"
bin	-INF	0
bin	0	0
bin	1	1
bin	2	0
statistic RandomGeometricGraph.rgnv[33] 	arrivalTime:histogram
field count 1
field mean 62.175
field stddev nan
field sum 62.175
field sqrsum 3865.730625
field min 62.175
field max 62.175
attr interpolationmode  none
attr source  arrivalTime
attr title  "arrival time, histogram"
bin	-INF	0
bin	61.675	0
bin	61.708333333333	0
bin	61.741666666667	0
bin	61.775	0
bin	61.808333333333	0
bin	61.841666666667	0
bin	61.875	0
bin	61.908333333333	0
bin	61.941666666667	0
bin	61.975	0
bin	62.008333333333	0
bin	62.041666666667	0
bin	62.075	0
bin	62.108333333333	0
bin	62.141666666667	0
bin	62.175	1
bin	62.208333333333	0
bin	62.241666666667	0
bin	62.275	0
bin	62.308333333333	0
bin	62.341666666667	0
bin	62.375	0
bin	62.408333333333	0
bin	62.441666666667	0
bin	62.475	0
bin	62.508333333333	0
bin	62.541666666667	0
bin	62.575	0
bin	62.608333333333	0
bin	62.641666666667	0
bin	62.675	0
statistic RandomGeometricGraph.rgnv[33] 	arrivalPerc:histogram
field count 1
field mean 1
field stddev nan
field sum 1
field sqrsum 1
field min 1
field max 1
attr interpolationmode  none
attr source  count(arrival)
attr title  "arrival perc, histogram"
bin	-INF	0
bin	0	0
bin	1	1
bin	2	0
statistic RandomGeometricGraph.rgnv[34] 	arrivalTime:histogram
field count 1
field mean 54.944
field stddev nan
field sum 54.944
field sqrsum 3018.843136
field min 54.944
field max 54.944
attr interpolationmode  none
attr source  arrivalTime
attr title  "arrival time, histogram"
bin	-INF	0
bin	54.444	0
bin	54.477333333333	0
bin	54.510666666667	0
bin	54.544	0
bin	54.577333333333	0
bin	54.610666666667	0
bin	54.644	0
bin	54.677333333333	0
bin	54.710666666667	0
bin	54.744	0
bin	54.777333333333	0
bin	54.810666666667	0
bin	54.844	0
bin	54.877333333333	0
bin	54.910666666667	0
bin	54.944	1
bin	54.977333333333	0
bin	55.010666666667	0
bin	55.044	0
bin	55.077333333333	0
bin	55.110666666667	0
bin	55.144	0
bin	55.177333333333	0
bin	55.210666666667	0
bin	55.244	0
bin	55.277333333333	0
bin	55.310666666667	0
bin	55.344	0
bin	55.377333333333	0
bin	55.410666666667	0
bin	55.444	0
statistic RandomGeometricGraph.rgnv[34] 	arrivalPerc:histogram
field count 1
field mean 1
field stddev nan
field sum 1
field sqrsum 1
field min 1
field max 1
attr interpolationmode  none
attr source  count(arrival)
attr title  "arrival perc, histogram"
bin	-INF	0
bin	0	0
bin	1	1
bin	2	0
statistic RandomGeometricGraph.rgnv[35] 	arrivalTime:histogram
field count 1
field mean 128.34
field stddev nan
field sum 128.34
field sqrsum 16471.1556
field min 128.34
field max 128.34
attr interpolationmode  none
attr source  arrivalTime
attr title  "arrival time, histogram"
bin	-INF	0
bin	127.84	0
bin	127.87333333333	0
bin	127.90666666667	0
bin	127.94	0
bin	127.97333333333	0
bin	128.00666666667	0
bin	128.04	0
bin	128.07333333333	0
bin	128.10666666667	0
bin	128.14	0
bin	128.17333333333	0
bin	128.20666666667	0
bin	128.24	0
bin	128.27333333333	0
bin	128.30666666667	0
bin	128.34	1
bin	128.37333333333	0
bin	128.40666666667	0
bin	128.44	0
bin	128.47333333333	0
bin	128.50666666667	0
bin	128.54	0
bin	128.57333333333	0
bin	128.60666666667	0
bin	128.64	0
bin	128.67333333333	0
bin	128.70666666667	0
bin	128.74	0
bin	128.77333333333	0
bin	128.80666666667	0
bin	128.84	0
statistic RandomGeometricGraph.rgnv[35] 	arrivalPerc:histogram
field count 1
field mean 1
field stddev nan
field sum 1
field sqrsum 1
field min 1
field max 1
attr interpolationmode  none
attr source  count(arrival)
attr title  "arrival perc, histogram"
bin	-INF	0
bin	0	0
bin	1	1
bin	2	0
statistic RandomGeometricGraph.rgnv[36] 	arrivalTime:histogram
field count 1
field mean 133.34
field stddev nan
field sum 133.34
field sqrsum 17779.5556
field min 133.34
field max 133.34
attr interpolationmode  none
attr source  arrivalTime
attr title  "arrival time, histogram"
bin	-INF	0
bin	132.84	0
bin	132.87333333333	0
bin	132.90666666667	0
bin	132.94	0
bin	132.97333333333	0
bin	133.00666666667	0
bin	133.04	0
bin	133.07333333333	0
bin	133.10666666667	0
bin	133.14	0
bin	133.17333333333	0
bin	133.20666666667	0
bin	133.24	0
bin	133.27333333333	0
bin	133.30666666667	0
bin	133.34	1
bin	133.37333333333	0
bin	133.40666666667	0
bin	133.44	0
bin	133.47333333333	0
bin	133.50666666667	0
bin	133.54	0
bin	133.57333333333	0
bin	133.60666666667	0
bin	133.64	0
bin	133.67333333333	0
bin	133.70666666667	0
bin	133.74	0
bin	133.77333333333	0
bin	133.80666666667	0
bin	133.84	0
statistic RandomGeometricGraph.rgnv[36] 	arrivalPerc:histogram
field count 1
field mean 1
field stddev nan
field sum 1
field sqrsum 1
field min 1
field max 1
attr interpolationmode  none
attr source  count(arrival)
attr title  "arrival perc, histogram"
bin	-INF	0
bin	0	0
bin	1	1
bin	2	0
statistic RandomGeometricGraph.rgnv[37] 	arrivalTime:histogram
field count 1
field mean 84.396
field stddev nan
field sum 84.396
field sqrsum 7122.684816
field min 84.396
field max 84.396
attr interpolationmode  none
attr source  arrivalTime
attr title  "arrival time, histogram"
bin	-INF	0
bin	83.896	0
bin	83.929333333333	0
bin	83.962666666667	0
bin	83.996	0
bin	84.029333333333	0
bin	84.062666666667	0
bin	84.096	0
bin	84.129333333333	0
bin	84.162666666667	0
bin	84.196	0
bin	84.229333333333	0
bin	84.262666666667	0
bin	84.296	0
bin	84.329333333333	0
bin	84.362666666667	0
bin	84.396	1
bin	84.429333333333	0
bin	84.462666666667	0
bin	84.496	0
bin	84.529333333333	0
bin	84.562666666667	0
bin	84.596	0
bin	84.629333333333	0
bin	84.662666666667	0
bin	84.696	0
bin	84.729333333333	0
bin	84.762666666667	0
bin	84.796	0
bin	84.829333333333	0
bin	84.862666666667	0
bin	84.896	0
statistic RandomGeometricGraph.rgnv[37] 	arrivalPerc:histogram
field count 1
field mean 1
field stddev nan
field sum 1
field sqrsum 1
field min 1
field max 1
attr interpolationmode  none
attr source  count(arrival)
attr title  "arrival perc, histogram"
bin	-INF	0
bin	0	0
bin	1	1
bin	2	0
statistic RandomGeometricGraph.rgnv[38] 	arrivalTime:histogram
field count 1
field mean 177.284
field stddev nan
field sum 177.284
field sqrsum 31429.616656
field min 177.284
field max 177.284
attr interpolationmode  none
attr source  arrivalTime
attr title  "arrival time, histogram"
bin	-INF	0
bin	176.784	0
bin	176.81733333333	0
bin	176.85066666667	0
bin	176.884	0
bin	176.91733333333	0
bin	176.95066666667	0
bin	176.984	0
bin	177.01733333333	0
bin	177.05066666667	0
bin	177.084	0
bin	177.11733333333	0
bin	177.15066666667	0
bin	177.184	0
bin	177.21733333333	0
bin	177.25066666667	0
bin	177.284	1
bin	177.31733333333	0
bin	177.35066666667	0
bin	177.384	0
bin	177.41733333333	0
bin	177.45066666667	0
bin	177.484	0
bin	177.51733333333	0
bin	177.55066666667	0
bin	177.584	0
bin	177.61733333333	0
bin	177.65066666667	0
bin	177.684	0
bin	177.71733333333	0
bin	177.75066666667	0
bin	177.784	0
statistic RandomGeometricGraph.rgnv[38] 	arrivalPerc:histogram
field count 1
field mean 1
field stddev nan
field sum 1
field sqrsum 1
field min 1
field max 1
attr interpolationmode  none
attr source  count(arrival)
attr title  "arrival perc, histogram"
bin	-INF	0
bin	0	0
bin	1	1
bin	2	0
statistic RandomGeometricGraph.rgnv[39] 	arrivalTime:histogram
field count 1
field mean 172.254
field stddev nan
field sum 172.254
field sqrsum 29671.440516
field min 172.254
field max 172.254
attr interpolationmode  none
attr source  arrivalTime
attr title  "arrival time, histogram"
bin	-INF	0
bin	171.754	0
bin	171.78733333333	0
bin	171.82066666667	0
bin	171.854	0
bin	171.88733333333	0
bin	171.92066666667	0
bin	171.954	0
bin	171.98733333333	0
bin	172.02066666667	0
bin	172.054	0
bin	172.08733333333	0
bin	172.12066666667	0
bin	172.154	0
bin	172.18733333333	0
bin	172.22066666667	0
bin	172.254	1
bin	172.28733333333	0
bin	172.32066666667	0
bin	172.354	0
bin	172.38733333333	0
bin	172.42066666667	0
bin	172.454	0
bin	172.48733333333	0
bin	172.52066666667	0
bin	172.554	0
bin	172.58733333333	0
bin	172.62066666667	0
bin	172.654	0
bin	172.68733333333	0
bin	172.72066666667	0
bin	172.754	0
statistic RandomGeometricGraph.rgnv[39] 	arrivalPerc:histogram
field count 1
field mean 1
field stddev nan
field sum 1
field sqrsum 1
field min 1
field max 1
attr interpolationmode  none
attr source  count(arrival)
attr title  "arrival perc, histogram"
bin	-INF	0
bin	0	0
bin	1	1
bin	2	0
statistic RandomGeometricGraph.rgnv[40] 	arrivalTime:histogram
field count 1
field mean 226.178
field stddev nan
field sum 226.178
field sqrsum 51156.487684
field min 226.178
field max 226.178
attr interpolationmode  none
attr source  arrivalTime
attr title  "arrival time, histogram"
bin	-INF	0
bin	225.678	0
bin	225.71133333333	0
bin	225.74466666667	0
bin	225.778	0
bin	225.81133333333	0
bin	225.84466666667	0
bin	225.878	0
bin	225.91133333333	0
bin	225.94466666667	0
bin	225.978	0
bin	226.01133333333	0
bin	226.04466666667	0
bin	226.078	0
bin	226.11133333333	0
bin	226.14466666667	0
bin	226.178	1
bin	226.21133333333	0
bin	226.24466666667	0
bin	226.278	0
bin	226.31133333333	0
bin	226.34466666667	0
bin	226.378	0
bin	226.41133333333	0
bin	226.44466666667	0
bin	226.478	0
bin	226.51133333333	0
bin	226.54466666667	0
bin	226.578	0
bin	226.61133333333	0
bin	226.64466666667	0
bin	226.678	0
statistic RandomGeometricGraph.rgnv[40] 	arrivalPerc:histogram
field count 1
field mean 1
field stddev nan
field sum 1
field sqrsum 1
field min 1
field max 1
attr interpolationmode  none
attr source  count(arrival)
attr title  "arrival perc, histogram"
bin	-INF	0
bin	0	0
bin	1	1
bin	2	0
statistic RandomGeometricGraph.rgnv[41] 	arrivalTime:histogram
field count 1
field mean 96.647
field stddev nan
field sum 96.647
field sqrsum 9340.642609
field min 96.647
field max 96.647
attr interpolationmode  none
attr source  arrivalTime
attr title  "arrival time, histogram"
bin	-INF	0
bin	96.147	0
bin	96.180333333333	0
bin	96.213666666667	0
bin	96.247	0
bin	96.280333333333	0
bin	96.313666666667	0
bin	96.347	0
bin	96.380333333333	0
bin	96.413666666667	0
bin	96.447	0
bin	96.480333333333	0
bin	96.513666666667	0
bin	96.547	0
bin	96.580333333333	0
bin	96.613666666667	0
bin	96.647	1
bin	96.680333333333	0
bin	96.713666666667	0
bin	96.747	0
bin	96.780333333333	0
bin	96.813666666667	0
bin	96.847	0
bin	96.880333333333	0
bin	96.913666666667	0
bin	96.947	0
bin	96.980333333333	0
bin	97.013666666667	0
bin	97.047	0
bin	97.080333333333	0
bin	97.113666666667	0
bin	97.147	0
statistic RandomGeometricGraph.rgnv[41] 	arrivalPerc:histogram
field count 1
field mean 1
field stddev nan
field sum 1
field sqrsum 1
field min 1
field max 1
attr interpolationmode  none
attr source  count(arrival)
attr title  "arrival perc, histogram"
bin	-INF	0
bin	0	0
bin	1	1
bin	2	0
statistic RandomGeometricGraph.rgnv[42] 	arrivalTime:histogram
field count 1
field mean 96.647
field stddev nan
field sum 96.647
field sqrsum 9340.642609
field min 96.647
field max 96.647
attr interpolationmode  none
attr source  arrivalTime
attr title  "arrival time, histogram"
bin	-INF	0
bin	96.147	0
bin	96.180333333333	0
bin	96.213666666667	0
bin	96.247	0
bin	96.280333333333	0
bin	96.313666666667	0
bin	96.347	0
bin	96.380333333333	0
bin	96.413666666667	0
bin	96.447	0
bin	96.480333333333	0
bin	96.513666666667	0
bin	96.547	0
bin	96.580333333333	0
bin	96.613666666667	0
bin	96.647	1
bin	96.680333333333	0
bin	96.713666666667	0
bin	96.747	0
bin	96.780333333333	0
bin	96.813666666667	0
bin	96.847	0
bin	96.880333333333	0
bin	96.913666666667	0
bin	96.947	0
bin	96.980333333333	0
bin	97.013666666667	0
bin	97.047	0
bin	97.080333333333	0
bin	97.113666666667	0
bin	97.147	0
statistic RandomGeometricGraph.rgnv[42] 	arrivalPerc:histogram
field count 1
field mean 1
field stddev nan
field sum 1
field sqrsum 1
field min 1
field max 1
attr interpolationmode  none
attr source  count(arrival)
attr title  "arrival perc, histogram"
bin	-INF	0
bin	0	0
bin	1	1
bin	2	0
statistic RandomGeometricGraph.rgnv[43] 	arrivalTime:histogram
field count 1
field mean 170.043
field stddev nan
field sum 170.043
field sqrsum 28914.621849
field min 170.043
field max 170.043
attr interpolationmode  none
attr source  arrivalTime
attr title  "arrival time, histogram"
bin	-INF	0
bin	169.543	0
bin	169.57633333333	0
bin	169.60966666667	0
bin	169.643	0
bin	169.67633333333	0
bin	169.70966666667	0
bin	169.743	0
bin	169.77633333333	0
bin	169.80966666667	0
bin	169.843	0
bin	169.87633333333	0
bin	169.90966666667	0
bin	169.943	0
bin	169.97633333333	0
bin	170.00966666667	0
bin	170.043	1
bin	170.07633333333	0
bin	170.10966666667	0
bin	170.143	0
bin	170.17633333333	0
bin	170.20966666667	0
bin	170.243	0
bin	170.27633333333	0
bin	170.30966666667	0
bin	170.343	0
bin	170.37633333333	0
bin	170.40966666667	0
bin	170.443	0
bin	170.47633333333	0
bin	170.50966666667	0
bin	170.543	0
statistic RandomGeometricGraph.rgnv[43] 	arrivalPerc:histogram
field count 1
field mean 1
field stddev nan
field sum 1
field sqrsum 1
field min 1
field max 1
attr interpolationmode  none
attr source  count(arrival)
attr title  "arrival perc, histogram"
bin	-INF	0
bin	0	0
bin	1	1
bin	2	0
statistic RandomGeometricGraph.rgnv[44] 	arrivalTime:histogram
field count 1
field mean 84.406
field stddev nan
field sum 84.406
field sqrsum 7124.372836
field min 84.406
field max 84.406
attr interpolationmode  none
attr source  arrivalTime
attr title  "arrival time, histogram"
bin	-INF	0
bin	83.906	0
bin	83.939333333333	0
bin	83.972666666667	0
bin	84.006	0
bin	84.039333333333	0
bin	84.072666666667	0
bin	84.106	0
bin	84.139333333333	0
bin	84.172666666667	0
bin	84.206	0
bin	84.239333333333	0
bin	84.272666666667	0
bin	84.306	0
bin	84.339333333333	0
bin	84.372666666667	0
bin	84.406	1
bin	84.439333333333	0
bin	84.472666666667	0
bin	84.506	0
bin	84.539333333333	0
bin	84.572666666667	0
bin	84.606	0
bin	84.639333333333	0
bin	84.672666666667	0
bin	84.706	0
bin	84.739333333333	0
bin	84.772666666667	0
bin	84.806	0
bin	84.839333333333	0
bin	84.872666666667	0
bin	84.906	0
statistic RandomGeometricGraph.rgnv[44] 	arrivalPerc:histogram
field count 1
field mean 1
field stddev nan
field sum 1
field sqrsum 1
field min 1
field max 1
attr interpolationmode  none
attr source  count(arrival)
attr title  "arrival perc, histogram"
bin	-INF	0
bin	0	0
bin	1	1
bin	2	0
statistic RandomGeometricGraph.rgnv[45] 	arrivalTime:histogram
field count 1
field mean 187.284
field stddev nan
field sum 187.284
field sqrsum 35075.296656
field min 187.284
field max 187.284
attr interpolationmode  none
attr source  arrivalTime
attr title  "arrival time, histogram"
bin	-INF	0
bin	186.784	0
bin	186.81733333333	0
bin	186.85066666667	0
bin	186.884	0
bin	186.91733333333	0
bin	186.95066666667	0
bin	186.984	0
bin	187.01733333333	0
bin	187.05066666667	0
bin	187.084	0
bin	187.11733333333	0
bin	187.15066666667	0
bin	187.184	0
bin	187.21733333333	0
bin	187.25066666667	0
bin	187.284	1
bin	187.31733333333	0
bin	187.35066666667	0
bin	187.384	0
bin	187.41733333333	0
bin	187.45066666667	0
bin	187.484	0
bin	187.51733333333	0
bin	187.55066666667	0
bin	187.584	0
bin	187.61733333333	0
bin	187.65066666667	0
bin	187.684	0
bin	187.71733333333	0
bin	187.75066666667	0
bin	187.784	0
statistic RandomGeometricGraph.rgnv[45] 	arrivalPerc:histogram
field count 1
field mean 1
field stddev nan
field sum 1
field sqrsum 1
field min 1
field max 1
attr interpolationmode  none
attr source  count(arrival)
attr title  "arrival perc, histogram"
bin	-INF	0
bin	0	0
bin	1	1
bin	2	0
statistic RandomGeometricGraph.rgnv[46] 	arrivalTime:histogram
field count 1
field mean 140.571
field stddev nan
field sum 140.571
field sqrsum 19760.206041
field min 140.571
field max 140.571
attr interpolationmode  none
attr source  arrivalTime
attr title  "arrival time, histogram"
bin	-INF	0
bin	140.071	0
bin	140.10433333333	0
bin	140.13766666667	0
bin	140.171	0
bin	140.20433333333	0
bin	140.23766666667	0
bin	140.271	0
bin	140.30433333333	0
bin	140.33766666667	0
bin	140.371	0
bin	140.40433333333	0
bin	140.43766666667	0
bin	140.471	0
bin	140.50433333333	0
bin	140.53766666667	0
bin	140.571	1
bin	140.60433333333	0
bin	140.63766666667	0
bin	140.671	0
bin	140.70433333333	0
bin	140.73766666667	0
bin	140.771	0
bin	140.80433333333	0
bin	140.83766666667	0
bin	140.871	0
bin	140.90433333333	0
bin	140.93766666667	0
bin	140.971	0
bin	141.00433333333	0
bin	141.03766666667	0
bin	141.071	0
statistic RandomGeometricGraph.rgnv[46] 	arrivalPerc:histogram
field count 1
field mean 1
field stddev nan
field sum 1
field sqrsum 1
field min 1
field max 1
attr interpolationmode  none
attr source  count(arrival)
attr title  "arrival perc, histogram"
bin	-INF	0
bin	0	0
bin	1	1
bin	2	0
statistic RandomGeometricGraph.rgnv[47] 	arrivalTime:histogram
field count 1
field mean 204.515
field stddev nan
field sum 204.515
field sqrsum 41826.385225
field min 204.515
field max 204.515
attr interpolationmode  none
attr source  arrivalTime
attr title  "arrival time, histogram"
bin	-INF	0
bin	204.015	0
bin	204.04833333333	0
bin	204.08166666667	0
bin	204.115	0
bin	204.14833333333	0
bin	204.18166666667	0
bin	204.215	0
bin	204.24833333333	0
bin	204.28166666667	0
bin	204.315	0
bin	204.34833333333	0
bin	204.38166666667	0
bin	204.415	0
bin	204.44833333333	0
bin	204.48166666667	0
bin	204.515	1
bin	204.54833333333	0
bin	204.58166666667	0
bin	204.615	0
bin	204.64833333333	0
bin	204.68166666667	0
bin	204.715	0
bin	204.74833333333	0
bin	204.78166666667	0
bin	204.815	0
bin	204.84833333333	0
bin	204.88166666667	0
bin	204.915	0
bin	204.94833333333	0
bin	204.98166666667	0
bin	205.015	0
statistic RandomGeometricGraph.rgnv[47] 	arrivalPerc:histogram
field count 1
field mean 1
field stddev nan
field sum 1
field sqrsum 1
field min 1
field max 1
attr interpolationmode  none
attr source  count(arrival)
attr title  "arrival perc, histogram"
bin	-INF	0
bin	0	0
bin	1	1
bin	2	0
statistic RandomGeometricGraph.rgnv[48] 	arrivalTime:histogram
field count 1
field mean 103.858
field stddev nan
field sum 103.858
field sqrsum 10786.484164
field min 103.858
field max 103.858
attr interpolationmode  none
attr source  arrivalTime
attr title  "arrival time, histogram"
bin	-INF	0
bin	103.358	0
bin	103.39133333333	0
bin	103.42466666667	0
bin	103.458	0
bin	103.49133333333	0
bin	103.52466666667	0
bin	103.558	0
bin	103.59133333333	0
bin	103.62466666667	0
bin	103.658	0
bin	103.69133333333	0
bin	103.72466666667	0
bin	103.758	0
bin	103.79133333333	0
bin	103.82466666667	0
bin	103.858	1
bin	103.89133333333	0
bin	103.92466666667	0
bin	103.958	0
bin	103.99133333333	0
bin	104.02466666667	0
bin	104.058	0
bin	104.09133333333	0
bin	104.12466666667	0
bin	104.158	0
bin	104.19133333333	0
bin	104.22466666667	0
bin	104.258	0
bin	104.29133333333	0
bin	104.32466666667	0
bin	104.358	0
statistic RandomGeometricGraph.rgnv[48] 	arrivalPerc:histogram
field count 1
field mean 1
field stddev nan
field sum 1
field sqrsum 1
field min 1
field max 1
attr interpolationmode  none
attr source  count(arrival)
attr title  "arrival perc, histogram"
bin	-INF	0
bin	0	0
bin	1	1
bin	2	0
statistic RandomGeometricGraph.rgnv[49] 	arrivalTime:histogram
field count 1
field mean 213.957
field stddev nan
field sum 213.957
field sqrsum 45777.597849
field min 213.957
field max 213.957
attr interpolationmode  none
attr source  arrivalTime
attr title  "arrival time, histogram"
bin	-INF	0
bin	213.457	0
bin	213.49033333333	0
bin	213.52366666667	0
bin	213.557	0
bin	213.59033333333	0
bin	213.62366666667	0
bin	213.657	0
bin	213.69033333333	0
bin	213.72366666667	0
bin	213.757	0
bin	213.79033333333	0
bin	213.82366666667	0
bin	213.857	0
bin	213.89033333333	0
bin	213.92366666667	0
bin	213.957	1
bin	213.99033333333	0
bin	214.02366666667	0
bin	214.057	0
bin	214.09033333333	0
bin	214.12366666667	0
bin	214.157	0
bin	214.19033333333	0
bin	214.22366666667	0
bin	214.257	0
bin	214.29033333333	0
bin	214.32366666667	0
bin	214.357	0
bin	214.39033333333	0
bin	214.42366666667	0
bin	214.457	0
statistic RandomGeometricGraph.rgnv[49] 	arrivalPerc:histogram
field count 1
field mean 1
field stddev nan
field sum 1
field sqrsum 1
field min 1
field max 1
attr interpolationmode  none
attr source  count(arrival)
attr title  "arrival perc, histogram"
bin	-INF	0
bin	0	0
bin	1	1
bin	2	0
statistic RandomGeometricGraph.rgnv[50] 	arrivalTime:histogram
field count 1
field mean 121.109
field stddev nan
field sum 121.109
field sqrsum 14667.389881
field min 121.109
field max 121.109
attr interpolationmode  none
attr source  arrivalTime
attr title  "arrival time, histogram"
bin	-INF	0
bin	120.609	0
bin	120.64233333333	0
bin	120.67566666667	0
bin	120.709	0
bin	120.74233333333	0
bin	120.77566666667	0
bin	120.809	0
bin	120.84233333333	0
bin	120.87566666667	0
bin	120.909	0
bin	120.94233333333	0
bin	120.97566666667	0
bin	121.009	0
bin	121.04233333333	0
bin	121.07566666667	0
bin	121.109	1
bin	121.14233333333	0
bin	121.17566666667	0
bin	121.209	0
bin	121.24233333333	0
bin	121.27566666667	0
bin	121.309	0
bin	121.34233333333	0
bin	121.37566666667	0
bin	121.409	0
bin	121.44233333333	0
bin	121.47566666667	0
bin	121.509	0
bin	121.54233333333	0
bin	121.57566666667	0
bin	121.609	0
statistic RandomGeometricGraph.rgnv[50] 	arrivalPerc:histogram
field count 1
field mean 1
field stddev nan
field sum 1
field sqrsum 1
field min 1
field max 1
attr interpolationmode  none
attr source  count(arrival)
attr title  "arrival perc, histogram"
bin	-INF	0
bin	0	0
bin	1	1
bin	2	0
statistic RandomGeometricGraph.rgnv[51] 	arrivalTime:histogram
field count 1
field mean 218.977
field stddev nan
field sum 218.977
field sqrsum 47950.926529
field min 218.977
field max 218.977
attr interpolationmode  none
attr source  arrivalTime
attr title  "arrival time, histogram"
bin	-INF	0
bin	218.477	0
bin	218.51033333333	0
bin	218.54366666667	0
bin	218.577	0
bin	218.61033333333	0
bin	218.64366666667	0
bin	218.677	0
bin	218.71033333333	0
bin	218.74366666667	0
bin	218.777	0
bin	218.81033333333	0
bin	218.84366666667	0
bin	218.877	0
bin	218.91033333333	0
bin	218.94366666667	0
bin	218.977	1
bin	219.01033333333	0
bin	219.04366666667	0
bin	219.077	0
bin	219.11033333333	0
bin	219.14366666667	0
bin	219.177	0
bin	219.21033333333	0
bin	219.24366666667	0
bin	219.277	0
bin	219.31033333333	0
bin	219.34366666667	0
bin	219.377	0
bin	219.41033333333	0
bin	219.44366666667	0
bin	219.477	0
statistic RandomGeometricGraph.rgnv[51] 	arrivalPerc:histogram
field count 1
field mean 1
field stddev nan
field sum 1
field sqrsum 1
field min 1
field max 1
attr interpolationmode  none
attr source  count(arrival)
attr title  "arrival perc, histogram"
bin	-INF	0
bin	0	0
bin	1	1
bin	2	0
statistic RandomGeometricGraph.rgnv[52] 	arrivalTime:histogram
field count 1
field mean 91.627
field stddev nan
field sum 91.627
field sqrsum 8395.507129
field min 91.627
field max 91.627
attr interpolationmode  none
attr source  arrivalTime
attr title  "arrival time, histogram"
bin	-INF	0
bin	91.127	0
bin	91.160333333333	0
bin	91.193666666667	0
bin	91.227	0
bin	91.260333333333	0
bin	91.293666666667	0
bin	91.327	0
bin	91.360333333333	0
bin	91.393666666667	0
bin	91.427	0
bin	91.460333333333	0
bin	91.493666666667	0
bin	91.527	0
bin	91.560333333333	0
bin	91.593666666667	0
bin	91.627	1
bin	91.660333333333	0
bin	91.693666666667	0
bin	91.727	0
bin	91.760333333333	0
bin	91.793666666667	0
bin	91.827	0
bin	91.860333333333	0
bin	91.893666666667	0
bin	91.927	0
bin	91.960333333333	0
bin	91.993666666667	0
bin	92.027	0
bin	92.060333333333	0
bin	92.093666666667	0
bin	92.127	0
statistic RandomGeometricGraph.rgnv[52] 	arrivalPerc:histogram
field count 1
field mean 1
field stddev nan
field sum 1
field sqrsum 1
field min 1
field max 1
attr interpolationmode  none
attr source  count(arrival)
attr title  "arrival perc, histogram"
bin	-INF	0
bin	0	0
bin	1	1
bin	2	0
statistic RandomGeometricGraph.rgnv[53] 	arrivalTime:histogram
field count 1
field mean 152.802
field stddev nan
field sum 152.802
field sqrsum 23348.451204
field min 152.802
field max 152.802
attr interpolationmode  none
attr source  arrivalTime
attr title  "arrival time, histogram"
bin	-INF	0
bin	152.302	0
bin	152.33533333333	0
bin	152.36866666667	0
bin	152.402	0
bin	152.43533333333	0
bin	152.46866666667	0
bin	152.502	0
bin	152.53533333333	0
bin	152.56866666667	0
bin	152.602	0
bin	152.63533333333	0
bin	152.66866666667	0
bin	152.702	0
bin	152.73533333333	0
bin	152.76866666667	0
bin	152.802	1
bin	152.83533333333	0
bin	152.86866666667	0
bin	152.902	0
bin	152.93533333333	0
bin	152.96866666667	0
bin	153.002	0
bin	153.03533333333	0
bin	153.06866666667	0
bin	153.102	0
bin	153.13533333333	0
bin	153.16866666667	0
bin	153.202	0
bin	153.23533333333	0
bin	153.26866666667	0
bin	153.302	0
statistic RandomGeometricGraph.rgnv[53] 	arrivalPerc:histogram
field count 1
field mean 1
field stddev nan
field sum 1
field sqrsum 1
field min 1
field max 1
attr interpolationmode  none
attr source  count(arrival)
attr title  "arrival perc, histogram"
bin	-INF	0
bin	0	0
bin	1	1
bin	2	0
statistic RandomGeometricGraph.rgnv[54] 	arrivalTime:histogram
field count 1
field mean 152.792
field stddev nan
field sum 152.792
field sqrsum 23345.395264
field min 152.792
field max 152.792
attr interpolationmode  none
attr source  arrivalTime
attr title  "arrival time, histogram"
bin	-INF	0
bin	152.292	0
bin	152.32533333333	0
bin	152.35866666667	0
bin	152.392	0
bin	152.42533333333	0
bin	152.45866666667	0
bin	152.492	0
bin	152.52533333333	0
bin	152.55866666667	0
bin	152.592	0
bin	152.62533333333	0
bin	152.65866666667	0
bin	152.692	0
bin	152.72533333333	0
bin	152.75866666667	0
bin	152.792	1
bin	152.82533333333	0
bin	152.85866666667	0
bin	152.892	0
bin	152.92533333333	0
bin	152.95866666667	0
bin	152.992	0
bin	153.02533333333	0
bin	153.05866666667	0
bin	153.092	0
bin	153.12533333333	0
bin	153.15866666667	0
bin	153.192	0
bin	153.22533333333	0
bin	153.25866666667	0
bin	153.292	0
statistic RandomGeometricGraph.rgnv[54] 	arrivalPerc:histogram
field count 1
field mean 1
field stddev nan
field sum 1
field sqrsum 1
field min 1
field max 1
attr interpolationmode  none
attr source  count(arrival)
attr title  "arrival perc, histogram"
bin	-INF	0
bin	0	0
bin	1	1
bin	2	0
statistic RandomGeometricGraph.rgnv[55] 	arrivalTime:histogram
field count 1
field mean 91.637
field stddev nan
field sum 91.637
field sqrsum 8397.339769
field min 91.637
field max 91.637
attr interpolationmode  none
attr source  arrivalTime
attr title  "arrival time, histogram"
bin	-INF	0
bin	91.137	0
bin	91.170333333333	0
bin	91.203666666667	0
bin	91.237	0
bin	91.270333333333	0
bin	91.303666666667	0
bin	91.337	0
bin	91.370333333333	0
bin	91.403666666667	0
bin	91.437	0
bin	91.470333333333	0
bin	91.503666666667	0
bin	91.537	0
bin	91.570333333333	0
bin	91.603666666667	0
bin	91.637	1
bin	91.670333333333	0
bin	91.703666666667	0
bin	91.737	0
bin	91.770333333333	0
bin	91.803666666667	0
bin	91.837	0
bin	91.870333333333	0
bin	91.903666666667	0
bin	91.937	0
bin	91.970333333333	0
bin	92.003666666667	0
bin	92.037	0
bin	92.070333333333	0
bin	92.103666666667	0
bin	92.137	0
statistic RandomGeometricGraph.rgnv[55] 	arrivalPerc:histogram
field count 1
field mean 1
field stddev nan
field sum 1
field sqrsum 1
field min 1
field max 1
attr interpolationmode  none
attr source  count(arrival)
attr title  "arrival perc, histogram"
bin	-INF	0
bin	0	0
bin	1	1
bin	2	0
statistic RandomGeometricGraph.rgnv[56] 	arrivalTime:histogram
field count 1
field mean 184.515
field stddev nan
field sum 184.515
field sqrsum 34045.785225
field min 184.515
field max 184.515
attr interpolationmode  none
attr source  arrivalTime
attr title  "arrival time, histogram"
bin	-INF	0
bin	184.015	0
bin	184.04833333333	0
bin	184.08166666667	0
bin	184.115	0
bin	184.14833333333	0
bin	184.18166666667	0
bin	184.215	0
bin	184.24833333333	0
bin	184.28166666667	0
bin	184.315	0
bin	184.34833333333	0
bin	184.38166666667	0
bin	184.415	0
bin	184.44833333333	0
bin	184.48166666667	0
bin	184.515	1
bin	184.54833333333	0
bin	184.58166666667	0
bin	184.615	0
bin	184.64833333333	0
bin	184.68166666667	0
bin	184.715	0
bin	184.74833333333	0
bin	184.78166666667	0
bin	184.815	0
bin	184.84833333333	0
bin	184.88166666667	0
bin	184.915	0
bin	184.94833333333	0
bin	184.98166666667	0
bin	185.015	0
statistic RandomGeometricGraph.rgnv[56] 	arrivalPerc:histogram
field count 1
field mean 1
field stddev nan
field sum 1
field sqrsum 1
field min 1
field max 1
attr interpolationmode  none
attr source  count(arrival)
attr title  "arrival perc, histogram"
bin	-INF	0
bin	0	0
bin	1	1
bin	2	0
statistic RandomGeometricGraph.rgnv[57] 	arrivalTime:histogram
field count 1
field mean 206.726
field stddev nan
field sum 206.726
field sqrsum 42735.639076
field min 206.726
field max 206.726
attr interpolationmode  none
attr source  arrivalTime
attr title  "arrival time, histogram"
bin	-INF	0
bin	206.226	0
bin	206.25933333333	0
bin	206.29266666667	0
bin	206.326	0
bin	206.35933333333	0
bin	206.39266666667	0
bin	206.426	0
bin	206.45933333333	0
bin	206.49266666667	0
bin	206.526	0
bin	206.55933333333	0
bin	206.59266666667	0
bin	206.626	0
bin	206.65933333333	0
bin	206.69266666667	0
bin	206.726	1
bin	206.75933333333	0
bin	206.79266666667	0
bin	206.826	0
bin	206.85933333333	0
bin	206.89266666667	0
bin	206.926	0
bin	206.95933333333	0
bin	206.99266666667	0
bin	207.026	0
bin	207.05933333333	0
bin	207.09266666667	0
bin	207.126	0
bin	207.15933333333	0
bin	207.19266666667	0
bin	207.226	0
statistic RandomGeometricGraph.rgnv[57] 	arrivalPerc:histogram
field count 1
field mean 1
field stddev nan
field sum 1
field sqrsum 1
field min 1
field max 1
attr interpolationmode  none
attr source  count(arrival)
attr title  "arrival perc, histogram"
bin	-INF	0
bin	0	0
bin	1	1
bin	2	0
statistic RandomGeometricGraph.rgnv[58] 	arrivalTime:histogram
field count 1
field mean 157.802
field stddev nan
field sum 157.802
field sqrsum 24901.471204
field min 157.802
field max 157.802
attr interpolationmode  none
attr source  arrivalTime
attr title  "arrival time, histogram"
bin	-INF	0
bin	157.302	0
bin	157.33533333333	0
bin	157.36866666667	0
bin	157.402	0
bin	157.43533333333	0
bin	157.46866666667	0
bin	157.502	0
bin	157.53533333333	0
bin	157.56866666667	0
bin	157.602	0
bin	157.63533333333	0
bin	157.66866666667	0
bin	157.702	0
bin	157.73533333333	0
bin	157.76866666667	0
bin	157.802	1
bin	157.83533333333	0
bin	157.86866666667	0
bin	157.902	0
bin	157.93533333333	0
bin	157.96866666667	0
bin	158.002	0
bin	158.03533333333	0
bin	158.06866666667	0
bin	158.102	0
bin	158.13533333333	0
bin	158.16866666667	0
bin	158.202	0
bin	158.23533333333	0
bin	158.26866666667	0
bin	158.302	0
statistic RandomGeometricGraph.rgnv[58] 	arrivalPerc:histogram
field count 1
field mean 1
field stddev nan
field sum 1
field sqrsum 1
field min 1
field max 1
attr interpolationmode  none
attr source  count(arrival)
attr title  "arrival perc, histogram"
bin	-INF	0
bin	0	0
bin	1	1
bin	2	0
statistic RandomGeometricGraph.rgnv[59] 	arrivalTime:histogram
field count 1
field mean 74.406
field stddev nan
field sum 74.406
field sqrsum 5536.252836
field min 74.406
field max 74.406
attr interpolationmode  none
attr source  arrivalTime
attr title  "arrival time, histogram"
bin	-INF	0
bin	73.906	0
bin	73.939333333333	0
bin	73.972666666667	0
bin	74.006	0
bin	74.039333333333	0
bin	74.072666666667	0
bin	74.106	0
bin	74.139333333333	0
bin	74.172666666667	0
bin	74.206	0
bin	74.239333333333	0
bin	74.272666666667	0
bin	74.306	0
bin	74.339333333333	0
bin	74.372666666667	0
bin	74.406	1
bin	74.439333333333	0
bin	74.472666666667	0
bin	74.506	0
bin	74.539333333333	0
bin	74.572666666667	0
bin	74.606	0
bin	74.639333333333	0
bin	74.672666666667	0
bin	74.706	0
bin	74.739333333333	0
bin	74.772666666667	0
bin	74.806	0
bin	74.839333333333	0
bin	74.872666666667	0
bin	74.906	0
statistic RandomGeometricGraph.rgnv[59] 	arrivalPerc:histogram
field count 1
field mean 1
field stddev nan
field sum 1
field sqrsum 1
field min 1
field max 1
attr interpolationmode  none
attr source  count(arrival)
attr title  "arrival perc, histogram"
bin	-INF	0
bin	0	0
bin	1	1
bin	2	0
statistic RandomGeometricGraph.rgnv[60] 	arrivalTime:histogram
field count 1
field mean 204.515
field stddev nan
field sum 204.515
field sqrsum 41826.385225
field min 204.515
field max 204.515
attr interpolationmode  none
attr source  arrivalTime
attr title  "arrival time, histogram"
bin	-INF	0
bin	204.015	0
bin	204.04833333333	0
bin	204.08166666667	0
bin	204.115	0
bin	204.14833333333	0
bin	204.18166666667	0
bin	204.215	0
bin	204.24833333333	0
bin	204.28166666667	0
bin	204.315	0
bin	204.34833333333	0
bin	204.38166666667	0
bin	204.415	0
bin	204.44833333333	0
bin	204.48166666667	0
bin	204.515	1
bin	204.54833333333	0
bin	204.58166666667	0
bin	204.615	0
bin	204.64833333333	0
bin	204.68166666667	0
bin	204.715	0
bin	204.74833333333	0
bin	204.78166666667	0
bin	204.815	0
bin	204.84833333333	0
bin	204.88166666667	0
bin	204.915	0
bin	204.94833333333	0
bin	204.98166666667	0
bin	205.015	0
statistic RandomGeometricGraph.rgnv[60] 	arrivalPerc:histogram
field count 1
field mean 1
field stddev nan
field sum 1
field sqrsum 1
field min 1
field max 1
attr interpolationmode  none
attr source  count(arrival)
attr title  "arrival perc, histogram"
bin	-INF	0
bin	0	0
bin	1	1
bin	2	0
statistic RandomGeometricGraph.rgnv[61] 	arrivalTime:histogram
field count 1
field mean 121.099
field stddev nan
field sum 121.099
field sqrsum 14664.967801
field min 121.099
field max 121.099
attr interpolationmode  none
attr source  arrivalTime
attr title  "arrival time, histogram"
bin	-INF	0
bin	120.599	0
bin	120.63233333333	0
bin	120.66566666667	0
bin	120.699	0
bin	120.73233333333	0
bin	120.76566666667	0
bin	120.799	0
bin	120.83233333333	0
bin	120.86566666667	0
bin	120.899	0
bin	120.93233333333	0
bin	120.96566666667	0
bin	120.999	0
bin	121.03233333333	0
bin	121.06566666667	0
bin	121.099	1
bin	121.13233333333	0
bin	121.16566666667	0
bin	121.199	0
bin	121.23233333333	0
bin	121.26566666667	0
bin	121.299	0
bin	121.33233333333	0
bin	121.36566666667	0
bin	121.399	0
bin	121.43233333333	0
bin	121.46566666667	0
bin	121.499	0
bin	121.53233333333	0
bin	121.56566666667	0
bin	121.599	0
statistic RandomGeometricGraph.rgnv[61] 	arrivalPerc:histogram
field count 1
field mean 1
field stddev nan
field sum 1
field sqrsum 1
field min 1
field max 1
attr interpolationmode  none
attr source  count(arrival)
attr title  "arrival perc, histogram"
bin	-INF	0
bin	0	0
bin	1	1
bin	2	0
statistic RandomGeometricGraph.rgnv[62] 	arrivalTime:histogram
field count 1
field mean 138.35
field stddev nan
field sum 138.35
field sqrsum 19140.7225
field min 138.35
field max 138.35
attr interpolationmode  none
attr source  arrivalTime
attr title  "arrival time, histogram"
bin	-INF	0
bin	137.85	0
bin	137.88333333333	0
bin	137.91666666667	0
bin	137.95	0
bin	137.98333333333	0
bin	138.01666666667	0
bin	138.05	0
bin	138.08333333333	0
bin	138.11666666667	0
bin	138.15	0
bin	138.18333333333	0
bin	138.21666666667	0
bin	138.25	0
bin	138.28333333333	0
bin	138.31666666667	0
bin	138.35	1
bin	138.38333333333	0
bin	138.41666666667	0
bin	138.45	0
bin	138.48333333333	0
bin	138.51666666667	0
bin	138.55	0
bin	138.58333333333	0
bin	138.61666666667	0
bin	138.65	0
bin	138.68333333333	0
bin	138.71666666667	0
bin	138.75	0
bin	138.78333333333	0
bin	138.81666666667	0
bin	138.85	0
statistic RandomGeometricGraph.rgnv[62] 	arrivalPerc:histogram
field count 1
field mean 1
field stddev nan
field sum 1
field sqrsum 1
field min 1
field max 1
attr interpolationmode  none
attr source  count(arrival)
attr title  "arrival perc, histogram"
bin	-INF	0
bin	0	0
bin	1	1
bin	2	0
statistic RandomGeometricGraph.rgnv[63] 	arrivalTime:histogram
field count 1
field mean 160.033
field stddev nan
field sum 160.033
field sqrsum 25610.561089
field min 160.033
field max 160.033
attr interpolationmode  none
attr source  arrivalTime
attr title  "arrival time, histogram"
bin	-INF	0
bin	159.533	0
bin	159.56633333333	0
bin	159.59966666667	0
bin	159.633	0
bin	159.66633333333	0
bin	159.69966666667	0
bin	159.733	0
bin	159.76633333333	0
bin	159.79966666667	0
bin	159.833	0
bin	159.86633333333	0
bin	159.89966666667	0
bin	159.933	0
bin	159.96633333333	0
bin	159.99966666667	0
bin	160.033	1
bin	160.06633333333	0
bin	160.09966666667	0
bin	160.133	0
bin	160.16633333333	0
bin	160.19966666667	0
bin	160.233	0
bin	160.26633333333	0
bin	160.29966666667	0
bin	160.333	0
bin	160.36633333333	0
bin	160.39966666667	0
bin	160.433	0
bin	160.46633333333	0
bin	160.49966666667	0
bin	160.533	0
statistic RandomGeometricGraph.rgnv[63] 	arrivalPerc:histogram
field count 1
field mean 1
field stddev nan
field sum 1
field sqrsum 1
field min 1
field max 1
attr interpolationmode  none
attr source  count(arrival)
attr title  "arrival perc, histogram"
bin	-INF	0
bin	0	0
bin	1	1
bin	2	0
statistic RandomGeometricGraph.rgnv[64] 	arrivalTime:histogram
field count 1
field mean 103.888
field stddev nan
field sum 103.888
field sqrsum 10792.716544
field min 103.888
field max 103.888
attr interpolationmode  none
attr source  arrivalTime
attr title  "arrival time, histogram"
bin	-INF	0
bin	103.388	0
bin	103.42133333333	0
bin	103.45466666667	0
bin	103.488	0
bin	103.52133333333	0
bin	103.55466666667	0
bin	103.588	0
bin	103.62133333333	0
bin	103.65466666667	0
bin	103.688	0
bin	103.72133333333	0
bin	103.75466666667	0
bin	103.788	0
bin	103.82133333333	0
bin	103.85466666667	0
bin	103.888	1
bin	103.92133333333	0
bin	103.95466666667	0
bin	103.988	0
bin	104.02133333333	0
bin	104.05466666667	0
bin	104.088	0
bin	104.12133333333	0
bin	104.15466666667	0
bin	104.188	0
bin	104.22133333333	0
bin	104.25466666667	0
bin	104.288	0
bin	104.32133333333	0
bin	104.35466666667	0
bin	104.388	0
statistic RandomGeometricGraph.rgnv[64] 	arrivalPerc:histogram
field count 1
field mean 1
field stddev nan
field sum 1
field sqrsum 1
field min 1
field max 1
attr interpolationmode  none
attr source  count(arrival)
attr title  "arrival perc, histogram"
bin	-INF	0
bin	0	0
bin	1	1
bin	2	0
statistic RandomGeometricGraph.rgnv[65] 	arrivalTime:histogram
field count 1
field mean 160.013
field stddev nan
field sum 160.013
field sqrsum 25604.160169
field min 160.013
field max 160.013
attr interpolationmode  none
attr source  arrivalTime
attr title  "arrival time, histogram"
bin	-INF	0
bin	159.513	0
bin	159.54633333333	0
bin	159.57966666667	0
bin	159.613	0
bin	159.64633333333	0
bin	159.67966666667	0
bin	159.713	0
bin	159.74633333333	0
bin	159.77966666667	0
bin	159.813	0
bin	159.84633333333	0
bin	159.87966666667	0
bin	159.913	0
bin	159.94633333333	0
bin	159.97966666667	0
bin	160.013	1
bin	160.04633333333	0
bin	160.07966666667	0
bin	160.113	0
bin	160.14633333333	0
bin	160.17966666667	0
bin	160.213	0
bin	160.24633333333	0
bin	160.27966666667	0
bin	160.313	0
bin	160.34633333333	0
bin	160.37966666667	0
bin	160.413	0
bin	160.44633333333	0
bin	160.47966666667	0
bin	160.513	0
statistic RandomGeometricGraph.rgnv[65] 	arrivalPerc:histogram
field count 1
field mean 1
field stddev nan
field sum 1
field sqrsum 1
field min 1
field max 1
attr interpolationmode  none
attr source  count(arrival)
attr title  "arrival perc, histogram"
bin	-INF	0
bin	0	0
bin	1	1
bin	2	0
statistic RandomGeometricGraph.rgnv[66] 	arrivalTime:histogram
field count 1
field mean 157.802
field stddev nan
field sum 157.802
field sqrsum 24901.471204
field min 157.802
field max 157.802
attr interpolationmode  none
attr source  arrivalTime
attr title  "arrival time, histogram"
bin	-INF	0
bin	157.302	0
bin	157.33533333333	0
bin	157.36866666667	0
bin	157.402	0
bin	157.43533333333	0
bin	157.46866666667	0
bin	157.502	0
bin	157.53533333333	0
bin	157.56866666667	0
bin	157.602	0
bin	157.63533333333	0
bin	157.66866666667	0
bin	157.702	0
bin	157.73533333333	0
bin	157.76866666667	0
bin	157.802	1
bin	157.83533333333	0
bin	157.86866666667	0
bin	157.902	0
bin	157.93533333333	0
bin	157.96866666667	0
bin	158.002	0
bin	158.03533333333	0
bin	158.06866666667	0
bin	158.102	0
bin	158.13533333333	0
bin	158.16866666667	0
bin	158.202	0
bin	158.23533333333	0
bin	158.26866666667	0
bin	158.302	0
statistic RandomGeometricGraph.rgnv[66] 	arrivalPerc:histogram
field count 1
field mean 1
field stddev nan
field sum 1
field sqrsum 1
field min 1
field max 1
attr interpolationmode  none
[...]
field count 1
field mean 25.462
field stddev nan
field sum 25.462
field sqrsum 648.313444
field min 25.462
field max 25.462
attr interpolationmode  none
attr source  arrivalTime
attr title  "arrival time, histogram"
bin	-INF	0
bin	24.962	0
bin	24.995333333333	0
bin	25.028666666667	0
bin	25.062	0
bin	25.095333333333	0
bin	25.128666666667	0
bin	25.162	0
bin	25.195333333333	0
bin	25.228666666667	0
bin	25.262	0
bin	25.295333333333	0
bin	25.328666666667	0
bin	25.362	0
bin	25.395333333333	0
bin	25.428666666667	0
bin	25.462	1
bin	25.495333333333	0
bin	25.528666666667	0
bin	25.562	0
bin	25.595333333333	0
bin	25.628666666667	0
bin	25.662	0
bin	25.695333333333	0
bin	25.728666666667	0
bin	25.762	0
bin	25.795333333333	0
bin	25.828666666667	0
bin	25.862	0
bin	25.895333333333	0
bin	25.928666666667	0
bin	25.962	0
statistic RandomGeometricGraph.rgnv[483] 	arrivalPerc:histogram
field count 1
field mean 1
field stddev nan
field sum 1
field sqrsum 1
field min 1
field max 1
attr interpolationmode  none
attr source  count(arrival)
attr title  "arrival perc, histogram"
bin	-INF	0
bin	0	0
bin	1	1
bin	2	0
statistic RandomGeometricGraph.rgnv[484] 	arrivalTime:histogram
field count 1
field mean 126.119
field stddev nan
field sum 126.119
field sqrsum 15906.002161
field min 126.119
field max 126.119
attr interpolationmode  none
attr source  arrivalTime
attr title  "arrival time, histogram"
bin	-INF	0
bin	125.619	0
bin	125.65233333333	0
bin	125.68566666667	0
bin	125.719	0
bin	125.75233333333	0
bin	125.78566666667	0
bin	125.819	0
bin	125.85233333333	0
bin	125.88566666667	0
bin	125.919	0
bin	125.95233333333	0
bin	125.98566666667	0
bin	126.019	0
bin	126.05233333333	0
bin	126.08566666667	0
bin	126.119	1
bin	126.15233333333	0
bin	126.18566666667	0
bin	126.219	0
bin	126.25233333333	0
bin	126.28566666667	0
bin	126.319	0
bin	126.35233333333	0
bin	126.38566666667	0
bin	126.419	0
bin	126.45233333333	0
bin	126.48566666667	0
bin	126.519	0
bin	126.55233333333	0
bin	126.58566666667	0
bin	126.619	0
statistic RandomGeometricGraph.rgnv[484] 	arrivalPerc:histogram
field count 1
field mean 1
field stddev nan
field sum 1
field sqrsum 1
field min 1
field max 1
attr interpolationmode  none
attr source  count(arrival)
attr title  "arrival perc, histogram"
bin	-INF	0
bin	0	0
bin	1	1
bin	2	0
statistic RandomGeometricGraph.rgnv[485] 	arrivalTime:histogram
field count 1
field mean 126.119
field stddev nan
field sum 126.119
field sqrsum 15906.002161
field min 126.119
field max 126.119
attr interpolationmode  none
attr source  arrivalTime
attr title  "arrival time, histogram"
bin	-INF	0
bin	125.619	0
bin	125.65233333333	0
bin	125.68566666667	0
bin	125.719	0
bin	125.75233333333	0
bin	125.78566666667	0
bin	125.819	0
bin	125.85233333333	0
bin	125.88566666667	0
bin	125.919	0
bin	125.95233333333	0
bin	125.98566666667	0
bin	126.019	0
bin	126.05233333333	0
bin	126.08566666667	0
bin	126.119	1
bin	126.15233333333	0
bin	126.18566666667	0
bin	126.219	0
bin	126.25233333333	0
bin	126.28566666667	0
bin	126.319	0
bin	126.35233333333	0
bin	126.38566666667	0
bin	126.419	0
bin	126.45233333333	0
bin	126.48566666667	0
bin	126.519	0
bin	126.55233333333	0
bin	126.58566666667	0
bin	126.619	0
statistic RandomGeometricGraph.rgnv[485] 	arrivalPerc:histogram
field count 1
field mean 1
field stddev nan
field sum 1
field sqrsum 1
field min 1
field max 1
attr interpolationmode  none
attr source  count(arrival)
attr title  "arrival perc, histogram"
bin	-INF	0
bin	0	0
bin	1	1
bin	2	0
statistic RandomGeometricGraph.rgnv[486] 	arrivalTime:histogram
field count 1
field mean 187.274
field stddev nan
field sum 187.274
field sqrsum 35071.551076
field min 187.274
field max 187.274
attr interpolationmode  none
attr source  arrivalTime
attr title  "arrival time, histogram"
bin	-INF	0
bin	186.774	0
bin	186.80733333333	0
bin	186.84066666667	0
bin	186.874	0
bin	186.90733333333	0
bin	186.94066666667	0
bin	186.974	0
bin	187.00733333333	0
bin	187.04066666667	0
bin	187.074	0
bin	187.10733333333	0
bin	187.14066666667	0
bin	187.174	0
bin	187.20733333333	0
bin	187.24066666667	0
bin	187.274	1
bin	187.30733333333	0
bin	187.34066666667	0
bin	187.374	0
bin	187.40733333333	0
bin	187.44066666667	0
bin	187.474	0
bin	187.50733333333	0
bin	187.54066666667	0
bin	187.574	0
bin	187.60733333333	0
bin	187.64066666667	0
bin	187.674	0
bin	187.70733333333	0
bin	187.74066666667	0
bin	187.774	0
statistic RandomGeometricGraph.rgnv[486] 	arrivalPerc:histogram
field count 1
field mean 1
field stddev nan
field sum 1
field sqrsum 1
field min 1
field max 1
attr interpolationmode  none
attr source  count(arrival)
attr title  "arrival perc, histogram"
bin	-INF	0
bin	0	0
bin	1	1
bin	2	0
statistic RandomGeometricGraph.rgnv[487] 	arrivalTime:histogram
field count 1
field mean 162.822
field stddev nan
field sum 162.822
field sqrsum 26511.003684
field min 162.822
field max 162.822
attr interpolationmode  none
attr source  arrivalTime
attr title  "arrival time, histogram"
bin	-INF	0
bin	162.322	0
bin	162.35533333333	0
bin	162.38866666667	0
bin	162.422	0
bin	162.45533333333	0
bin	162.48866666667	0
bin	162.522	0
bin	162.55533333333	0
bin	162.58866666667	0
bin	162.622	0
bin	162.65533333333	0
bin	162.68866666667	0
bin	162.722	0
bin	162.75533333333	0
bin	162.78866666667	0
bin	162.822	1
bin	162.85533333333	0
bin	162.88866666667	0
bin	162.922	0
bin	162.95533333333	0
bin	162.98866666667	0
bin	163.022	0
bin	163.05533333333	0
bin	163.08866666667	0
bin	163.122	0
bin	163.15533333333	0
bin	163.18866666667	0
bin	163.222	0
bin	163.25533333333	0
bin	163.28866666667	0
bin	163.322	0
statistic RandomGeometricGraph.rgnv[487] 	arrivalPerc:histogram
field count 1
field mean 1
field stddev nan
field sum 1
field sqrsum 1
field min 1
field max 1
attr interpolationmode  none
attr source  count(arrival)
attr title  "arrival perc, histogram"
bin	-INF	0
bin	0	0
bin	1	1
bin	2	0
statistic RandomGeometricGraph.rgnv[488] 	arrivalTime:histogram
field count 1
field mean 250.64
field stddev nan
field sum 250.64
field sqrsum 62820.4096
field min 250.64
field max 250.64
attr interpolationmode  none
attr source  arrivalTime
attr title  "arrival time, histogram"
bin	-INF	0
bin	250.14	0
bin	250.17333333333	0
bin	250.20666666667	0
bin	250.24	0
bin	250.27333333333	0
bin	250.30666666667	0
bin	250.34	0
bin	250.37333333333	0
bin	250.40666666667	0
bin	250.44	0
bin	250.47333333333	0
bin	250.50666666667	0
bin	250.54	0
bin	250.57333333333	0
bin	250.60666666667	0
bin	250.64	1
bin	250.67333333333	0
bin	250.70666666667	0
bin	250.74	0
bin	250.77333333333	0
bin	250.80666666667	0
bin	250.84	0
bin	250.87333333333	0
bin	250.90666666667	0
bin	250.94	0
bin	250.97333333333	0
bin	251.00666666667	0
bin	251.04	0
bin	251.07333333333	0
bin	251.10666666667	0
bin	251.14	0
statistic RandomGeometricGraph.rgnv[488] 	arrivalPerc:histogram
field count 1
field mean 1
field stddev nan
field sum 1
field sqrsum 1
field min 1
field max 1
attr interpolationmode  none
attr source  count(arrival)
attr title  "arrival perc, histogram"
bin	-INF	0
bin	0	0
bin	1	1
bin	2	0
statistic RandomGeometricGraph.rgnv[489] 	arrivalTime:histogram
field count 1
field mean 177.264
field stddev nan
field sum 177.264
field sqrsum 31422.525696
field min 177.264
field max 177.264
attr interpolationmode  none
attr source  arrivalTime
attr title  "arrival time, histogram"
bin	-INF	0
bin	176.764	0
bin	176.79733333333	0
bin	176.83066666667	0
bin	176.864	0
bin	176.89733333333	0
bin	176.93066666667	0
bin	176.964	0
bin	176.99733333333	0
bin	177.03066666667	0
bin	177.064	0
bin	177.09733333333	0
bin	177.13066666667	0
bin	177.164	0
bin	177.19733333333	0
bin	177.23066666667	0
bin	177.264	1
bin	177.29733333333	0
bin	177.33066666667	0
bin	177.364	0
bin	177.39733333333	0
bin	177.43066666667	0
bin	177.464	0
bin	177.49733333333	0
bin	177.53066666667	0
bin	177.564	0
bin	177.59733333333	0
bin	177.63066666667	0
bin	177.664	0
bin	177.69733333333	0
bin	177.73066666667	0
bin	177.764	0
statistic RandomGeometricGraph.rgnv[489] 	arrivalPerc:histogram
field count 1
field mean 1
field stddev nan
field sum 1
field sqrsum 1
field min 1
field max 1
attr interpolationmode  none
attr source  count(arrival)
attr title  "arrival perc, histogram"
bin	-INF	0
bin	0	0
bin	1	1
bin	2	0
statistic RandomGeometricGraph.rgnv[490] 	arrivalTime:histogram
field count 1
field mean 177.264
field stddev nan
field sum 177.264
field sqrsum 31422.525696
field min 177.264
field max 177.264
attr interpolationmode  none
attr source  arrivalTime
attr title  "arrival time, histogram"
bin	-INF	0
bin	176.764	0
bin	176.79733333333	0
bin	176.83066666667	0
bin	176.864	0
bin	176.89733333333	0
bin	176.93066666667	0
bin	176.964	0
bin	176.99733333333	0
bin	177.03066666667	0
bin	177.064	0
bin	177.09733333333	0
bin	177.13066666667	0
bin	177.164	0
bin	177.19733333333	0
bin	177.23066666667	0
bin	177.264	1
bin	177.29733333333	0
bin	177.33066666667	0
bin	177.364	0
bin	177.39733333333	0
bin	177.43066666667	0
bin	177.464	0
bin	177.49733333333	0
bin	177.53066666667	0
bin	177.564	0
bin	177.59733333333	0
bin	177.63066666667	0
bin	177.664	0
bin	177.69733333333	0
bin	177.73066666667	0
bin	177.764	0
statistic RandomGeometricGraph.rgnv[490] 	arrivalPerc:histogram
field count 1
field mean 1
field stddev nan
field sum 1
field sqrsum 1
field min 1
field max 1
attr interpolationmode  none
attr source  count(arrival)
attr title  "arrival perc, histogram"
bin	-INF	0
bin	0	0
bin	1	1
bin	2	0
statistic RandomGeometricGraph.rgnv[491] 	arrivalTime:histogram
field count 1
field mean 165.053
field stddev nan
field sum 165.053
field sqrsum 27242.492809
field min 165.053
field max 165.053
attr interpolationmode  none
attr source  arrivalTime
attr title  "arrival time, histogram"
bin	-INF	0
bin	164.553	0
bin	164.58633333333	0
bin	164.61966666667	0
bin	164.653	0
bin	164.68633333333	0
bin	164.71966666667	0
bin	164.753	0
bin	164.78633333333	0
bin	164.81966666667	0
bin	164.853	0
bin	164.88633333333	0
bin	164.91966666667	0
bin	164.953	0
bin	164.98633333333	0
bin	165.01966666667	0
bin	165.053	1
bin	165.08633333333	0
bin	165.11966666667	0
bin	165.153	0
bin	165.18633333333	0
bin	165.21966666667	0
bin	165.253	0
bin	165.28633333333	0
bin	165.31966666667	0
bin	165.353	0
bin	165.38633333333	0
bin	165.41966666667	0
bin	165.453	0
bin	165.48633333333	0
bin	165.51966666667	0
bin	165.553	0
statistic RandomGeometricGraph.rgnv[491] 	arrivalPerc:histogram
field count 1
field mean 1
field stddev nan
field sum 1
field sqrsum 1
field min 1
field max 1
attr interpolationmode  none
attr source  count(arrival)
attr title  "arrival perc, histogram"
bin	-INF	0
bin	0	0
bin	1	1
bin	2	0
statistic RandomGeometricGraph.rgnv[492] 	arrivalTime:histogram
field count 1
field mean 201.716
field stddev nan
field sum 201.716
field sqrsum 40689.344656
field min 201.716
field max 201.716
attr interpolationmode  none
attr source  arrivalTime
attr title  "arrival time, histogram"
bin	-INF	0
bin	201.216	0
bin	201.24933333333	0
bin	201.28266666667	0
bin	201.316	0
bin	201.34933333333	0
bin	201.38266666667	0
bin	201.416	0
bin	201.44933333333	0
bin	201.48266666667	0
bin	201.516	0
bin	201.54933333333	0
bin	201.58266666667	0
bin	201.616	0
bin	201.64933333333	0
bin	201.68266666667	0
bin	201.716	1
bin	201.74933333333	0
bin	201.78266666667	0
bin	201.816	0
bin	201.84933333333	0
bin	201.88266666667	0
bin	201.916	0
bin	201.94933333333	0
bin	201.98266666667	0
bin	202.016	0
bin	202.04933333333	0
bin	202.08266666667	0
bin	202.116	0
bin	202.14933333333	0
bin	202.18266666667	0
bin	202.216	0
statistic RandomGeometricGraph.rgnv[492] 	arrivalPerc:histogram
field count 1
field mean 1
field stddev nan
field sum 1
field sqrsum 1
field min 1
field max 1
attr interpolationmode  none
attr source  count(arrival)
attr title  "arrival perc, histogram"
bin	-INF	0
bin	0	0
bin	1	1
bin	2	0
statistic RandomGeometricGraph.rgnv[493] 	arrivalTime:histogram
field count 1
field mean 116.109
field stddev nan
field sum 116.109
field sqrsum 13481.299881
field min 116.109
field max 116.109
attr interpolationmode  none
attr source  arrivalTime
attr title  "arrival time, histogram"
bin	-INF	0
bin	115.609	0
bin	115.64233333333	0
bin	115.67566666667	0
bin	115.709	0
bin	115.74233333333	0
bin	115.77566666667	0
bin	115.809	0
bin	115.84233333333	0
bin	115.87566666667	0
bin	115.909	0
bin	115.94233333333	0
bin	115.97566666667	0
bin	116.009	0
bin	116.04233333333	0
bin	116.07566666667	0
bin	116.109	1
bin	116.14233333333	0
bin	116.17566666667	0
bin	116.209	0
bin	116.24233333333	0
bin	116.27566666667	0
bin	116.309	0
bin	116.34233333333	0
bin	116.37566666667	0
bin	116.409	0
bin	116.44233333333	0
bin	116.47566666667	0
bin	116.509	0
bin	116.54233333333	0
bin	116.57566666667	0
bin	116.609	0
statistic RandomGeometricGraph.rgnv[493] 	arrivalPerc:histogram
field count 1
field mean 1
field stddev nan
field sum 1
field sqrsum 1
field min 1
field max 1
attr interpolationmode  none
attr source  count(arrival)
attr title  "arrival perc, histogram"
bin	-INF	0
bin	0	0
bin	1	1
bin	2	0
statistic RandomGeometricGraph.rgnv[494] 	arrivalTime:histogram
field count 1
field mean 147.802
field stddev nan
field sum 147.802
field sqrsum 21845.431204
field min 147.802
field max 147.802
attr interpolationmode  none
attr source  arrivalTime
attr title  "arrival time, histogram"
bin	-INF	0
bin	147.302	0
bin	147.33533333333	0
bin	147.36866666667	0
bin	147.402	0
bin	147.43533333333	0
bin	147.46866666667	0
bin	147.502	0
bin	147.53533333333	0
bin	147.56866666667	0
bin	147.602	0
bin	147.63533333333	0
bin	147.66866666667	0
bin	147.702	0
bin	147.73533333333	0
bin	147.76866666667	0
bin	147.802	1
bin	147.83533333333	0
bin	147.86866666667	0
bin	147.902	0
bin	147.93533333333	0
bin	147.96866666667	0
bin	148.002	0
bin	148.03533333333	0
bin	148.06866666667	0
bin	148.102	0
bin	148.13533333333	0
bin	148.16866666667	0
bin	148.202	0
bin	148.23533333333	0
bin	148.26866666667	0
bin	148.302	0
statistic RandomGeometricGraph.rgnv[494] 	arrivalPerc:histogram
field count 1
field mean 1
field stddev nan
field sum 1
field sqrsum 1
field min 1
field max 1
attr interpolationmode  none
attr source  count(arrival)
attr title  "arrival perc, histogram"
bin	-INF	0
bin	0	0
bin	1	1
bin	2	0
statistic RandomGeometricGraph.rgnv[495] 	arrivalTime:histogram
field count 1
field mean 208.957
field stddev nan
field sum 208.957
field sqrsum 43663.027849
field min 208.957
field max 208.957
attr interpolationmode  none
attr source  arrivalTime
attr title  "arrival time, histogram"
bin	-INF	0
bin	208.457	0
bin	208.49033333333	0
bin	208.52366666667	0
bin	208.557	0
bin	208.59033333333	0
bin	208.62366666667	0
bin	208.657	0
bin	208.69033333333	0
bin	208.72366666667	0
bin	208.757	0
bin	208.79033333333	0
bin	208.82366666667	0
bin	208.857	0
bin	208.89033333333	0
bin	208.92366666667	0
bin	208.957	1
bin	208.99033333333	0
bin	209.02366666667	0
bin	209.057	0
bin	209.09033333333	0
bin	209.12366666667	0
bin	209.157	0
bin	209.19033333333	0
bin	209.22366666667	0
bin	209.257	0
bin	209.29033333333	0
bin	209.32366666667	0
bin	209.357	0
bin	209.39033333333	0
bin	209.42366666667	0
bin	209.457	0
statistic RandomGeometricGraph.rgnv[495] 	arrivalPerc:histogram
field count 1
field mean 1
field stddev nan
field sum 1
field sqrsum 1
field min 1
field max 1
attr interpolationmode  none
attr source  count(arrival)
attr title  "arrival perc, histogram"
bin	-INF	0
bin	0	0
bin	1	1
bin	2	0
statistic RandomGeometricGraph.rgnv[496] 	arrivalTime:histogram
field count 1
field mean 233.419
field stddev nan
field sum 233.419
field sqrsum 54484.429561
field min 233.419
field max 233.419
attr interpolationmode  none
attr source  arrivalTime
attr title  "arrival time, histogram"
bin	-INF	0
bin	232.919	0
bin	232.95233333333	0
bin	232.98566666667	0
bin	233.019	0
bin	233.05233333333	0
bin	233.08566666667	0
bin	233.119	0
bin	233.15233333333	0
bin	233.18566666667	0
bin	233.219	0
bin	233.25233333333	0
bin	233.28566666667	0
bin	233.319	0
bin	233.35233333333	0
bin	233.38566666667	0
bin	233.419	1
bin	233.45233333333	0
bin	233.48566666667	0
bin	233.519	0
bin	233.55233333333	0
bin	233.58566666667	0
bin	233.619	0
bin	233.65233333333	0
bin	233.68566666667	0
bin	233.719	0
bin	233.75233333333	0
bin	233.78566666667	0
bin	233.819	0
bin	233.85233333333	0
bin	233.88566666667	0
bin	233.919	0
statistic RandomGeometricGraph.rgnv[496] 	arrivalPerc:histogram
field count 1
field mean 1
field stddev nan
field sum 1
field sqrsum 1
field min 1
field max 1
attr interpolationmode  none
attr source  count(arrival)
attr title  "arrival perc, histogram"
bin	-INF	0
bin	0	0
bin	1	1
bin	2	0
statistic RandomGeometricGraph.rgnv[497] 	arrivalTime:histogram
field count 1
field mean 140.571
field stddev nan
field sum 140.571
field sqrsum 19760.206041
field min 140.571
field max 140.571
attr interpolationmode  none
attr source  arrivalTime
attr title  "arrival time, histogram"
bin	-INF	0
bin	140.071	0
bin	140.10433333333	0
bin	140.13766666667	0
bin	140.171	0
bin	140.20433333333	0
bin	140.23766666667	0
bin	140.271	0
bin	140.30433333333	0
bin	140.33766666667	0
bin	140.371	0
bin	140.40433333333	0
bin	140.43766666667	0
bin	140.471	0
bin	140.50433333333	0
bin	140.53766666667	0
bin	140.571	1
bin	140.60433333333	0
bin	140.63766666667	0
bin	140.671	0
bin	140.70433333333	0
bin	140.73766666667	0
bin	140.771	0
bin	140.80433333333	0
bin	140.83766666667	0
bin	140.871	0
bin	140.90433333333	0
bin	140.93766666667	0
bin	140.971	0
bin	141.00433333333	0
bin	141.03766666667	0
bin	141.071	0
statistic RandomGeometricGraph.rgnv[497] 	arrivalPerc:histogram
field count 1
field mean 1
field stddev nan
field sum 1
field sqrsum 1
field min 1
field max 1
attr interpolationmode  none
attr source  count(arrival)
attr title  "arrival perc, histogram"
bin	-INF	0
bin	0	0
bin	1	1
bin	2	0
statistic RandomGeometricGraph.rgnv[498] 	arrivalTime:histogram
field count 1
field mean 91.647
field stddev nan
field sum 91.647
field sqrsum 8399.172609
field min 91.647
field max 91.647
attr interpolationmode  none
attr source  arrivalTime
attr title  "arrival time, histogram"
bin	-INF	0
bin	91.147	0
bin	91.180333333333	0
bin	91.213666666667	0
bin	91.247	0
bin	91.280333333333	0
bin	91.313666666667	0
bin	91.347	0
bin	91.380333333333	0
bin	91.413666666667	0
bin	91.447	0
bin	91.480333333333	0
bin	91.513666666667	0
bin	91.547	0
bin	91.580333333333	0
bin	91.613666666667	0
bin	91.647	1
bin	91.680333333333	0
bin	91.713666666667	0
bin	91.747	0
bin	91.780333333333	0
bin	91.813666666667	0
bin	91.847	0
bin	91.880333333333	0
bin	91.913666666667	0
bin	91.947	0
bin	91.980333333333	0
bin	92.013666666667	0
bin	92.047	0
bin	92.080333333333	0
bin	92.113666666667	0
bin	92.147	0
statistic RandomGeometricGraph.rgnv[498] 	arrivalPerc:histogram
field count 1
field mean 1
field stddev nan
field sum 1
field sqrsum 1
field min 1
field max 1
attr interpolationmode  none
attr source  count(arrival)
attr title  "arrival perc, histogram"
bin	-INF	0
bin	0	0
bin	1	1
bin	2	0
statistic RandomGeometricGraph.rgnv[499] 	arrivalTime:histogram
field count 1
field mean 184.505
field stddev nan
field sum 184.505
field sqrsum 34042.095025
field min 184.505
field max 184.505
attr interpolationmode  none
attr source  arrivalTime
attr title  "arrival time, histogram"
bin	-INF	0
bin	184.005	0
bin	184.03833333333	0
bin	184.07166666667	0
bin	184.105	0
bin	184.13833333333	0
bin	184.17166666667	0
bin	184.205	0
bin	184.23833333333	0
bin	184.27166666667	0
bin	184.305	0
bin	184.33833333333	0
bin	184.37166666667	0
bin	184.405	0
bin	184.43833333333	0
bin	184.47166666667	0
bin	184.505	1
bin	184.53833333333	0
bin	184.57166666667	0
bin	184.605	0
bin	184.63833333333	0
bin	184.67166666667	0
bin	184.705	0
bin	184.73833333333	0
bin	184.77166666667	0
bin	184.805	0
bin	184.83833333333	0
bin	184.87166666667	0
bin	184.905	0
bin	184.93833333333	0
bin	184.97166666667	0
bin	185.005	0
statistic RandomGeometricGraph.rgnv[499] 	arrivalPerc:histogram
field count 1
field mean 1
field stddev nan
field sum 1
field sqrsum 1
field min 1
field max 1
attr interpolationmode  none
attr source  count(arrival)
attr title  "arrival perc, histogram"
bin	-INF	0
bin	0	0
bin	1	1
bin	2	0
