version 2
run rgg200-12-20170110-15:42:29-11860
attr configname rgg200
attr datetime 20170110-15:42:29
attr experiment rgg200
attr inifile iniFile/D002/omnetpp_15D002.ini
attr iterationvars ""
attr iterationvars2 $repetition=12
attr measurement ""
attr network blegossipprj.net.randomgeometricgraph.RandomGeometricGraph
attr processid 11860
attr repetition 12
attr replication #12
attr resultdir ../../results/D002/r15D002
attr runnumber 12
attr seedset 12
param RandomGeometricGraph.netSize 200
param RandomGeometricGraph.radius 15
param RandomGeometricGraph.rgnv[*].areaLength 100
param RandomGeometricGraph.rgnv[*].areaWidth 100

statistic RandomGeometricGraph.sc 	arrivalPercentage
field count 200
field mean 1
field stddev 0
field sum 200
field sqrsum 200
field min 1
field max 1
attr type  int
bin	-INF	0
bin	0	0
bin	1	200
bin	2	0
statistic RandomGeometricGraph.sc 	arrivalTime
field count 200
field mean 138.426955
field stddev 45.314474410928
field sum 27685.391
field sqrsum 4241031.290751
field min 0
field max 231.178
bin	-INF	0
bin	-70.2855	0
bin	-60.9141	0
bin	-51.5427	0
bin	-42.1713	0
bin	-32.7999	0
bin	-23.4285	0
bin	-14.0571	0
bin	-4.6857	1
bin	4.6857	1
bin	14.0571	0
bin	23.4285	2
bin	32.7999	2
bin	42.1713	3
bin	51.5427	1
bin	60.9141	5
bin	70.2855	7
bin	79.6569	6
bin	89.0283	11
bin	98.3997	8
bin	107.7711	18
bin	117.1425	9
bin	126.5139	16
bin	135.8853	11
bin	145.2567	19
bin	154.6281	14
bin	163.9995	19
bin	173.3709	18
bin	182.7423	7
bin	192.1137	10
bin	201.4851	4
bin	210.8565	8
statistic RandomGeometricGraph.rgnv[0] 	arrivalTime:histogram
field count 1
field mean 152.792
field stddev nan
field sum 152.792
field sqrsum 23345.395264
field min 152.792
field max 152.792
attr interpolationmode  none
attr source  arrivalTime
attr title  "arrival time, histogram"
bin	-INF	0
bin	152.292	0
bin	152.32533333333	0
bin	152.35866666667	0
bin	152.392	0
bin	152.42533333333	0
bin	152.45866666667	0
bin	152.492	0
bin	152.52533333333	0
bin	152.55866666667	0
bin	152.592	0
bin	152.62533333333	0
bin	152.65866666667	0
bin	152.692	0
bin	152.72533333333	0
bin	152.75866666667	0
bin	152.792	1
bin	152.82533333333	0
bin	152.85866666667	0
bin	152.892	0
bin	152.92533333333	0
bin	152.95866666667	0
bin	152.992	0
bin	153.02533333333	0
bin	153.05866666667	0
bin	153.092	0
bin	153.12533333333	0
bin	153.15866666667	0
bin	153.192	0
bin	153.22533333333	0
bin	153.25866666667	0
bin	153.292	0
statistic RandomGeometricGraph.rgnv[0] 	arrivalPerc:histogram
field count 1
field mean 1
field stddev nan
field sum 1
field sqrsum 1
field min 1
field max 1
attr interpolationmode  none
attr source  count(arrival)
attr title  "arrival perc, histogram"
bin	-INF	0
bin	0	0
bin	1	1
bin	2	0
statistic RandomGeometricGraph.rgnv[1] 	arrivalTime:histogram
field count 1
field mean 84.406
field stddev nan
field sum 84.406
field sqrsum 7124.372836
field min 84.406
field max 84.406
attr interpolationmode  none
attr source  arrivalTime
attr title  "arrival time, histogram"
bin	-INF	0
bin	83.906	0
bin	83.939333333333	0
bin	83.972666666667	0
bin	84.006	0
bin	84.039333333333	0
bin	84.072666666667	0
bin	84.106	0
bin	84.139333333333	0
bin	84.172666666667	0
bin	84.206	0
bin	84.239333333333	0
bin	84.272666666667	0
bin	84.306	0
bin	84.339333333333	0
bin	84.372666666667	0
bin	84.406	1
bin	84.439333333333	0
bin	84.472666666667	0
bin	84.506	0
bin	84.539333333333	0
bin	84.572666666667	0
bin	84.606	0
bin	84.639333333333	0
bin	84.672666666667	0
bin	84.706	0
bin	84.739333333333	0
bin	84.772666666667	0
bin	84.806	0
bin	84.839333333333	0
bin	84.872666666667	0
bin	84.906	0
statistic RandomGeometricGraph.rgnv[1] 	arrivalPerc:histogram
field count 1
field mean 1
field stddev nan
field sum 1
field sqrsum 1
field min 1
field max 1
attr interpolationmode  none
attr source  count(arrival)
attr title  "arrival perc, histogram"
bin	-INF	0
bin	0	0
bin	1	1
bin	2	0
statistic RandomGeometricGraph.rgnv[2] 	arrivalTime:histogram
field count 1
field mean 182.264
field stddev nan
field sum 182.264
field sqrsum 33220.165696
field min 182.264
field max 182.264
attr interpolationmode  none
attr source  arrivalTime
attr title  "arrival time, histogram"
bin	-INF	0
bin	181.764	0
bin	181.79733333333	0
bin	181.83066666667	0
bin	181.864	0
bin	181.89733333333	0
bin	181.93066666667	0
bin	181.964	0
bin	181.99733333333	0
bin	182.03066666667	0
bin	182.064	0
bin	182.09733333333	0
bin	182.13066666667	0
bin	182.164	0
bin	182.19733333333	0
bin	182.23066666667	0
bin	182.264	1
bin	182.29733333333	0
bin	182.33066666667	0
bin	182.364	0
bin	182.39733333333	0
bin	182.43066666667	0
bin	182.464	0
bin	182.49733333333	0
bin	182.53066666667	0
bin	182.564	0
bin	182.59733333333	0
bin	182.63066666667	0
bin	182.664	0
bin	182.69733333333	0
bin	182.73066666667	0
bin	182.764	0
statistic RandomGeometricGraph.rgnv[2] 	arrivalPerc:histogram
field count 1
field mean 1
field stddev nan
field sum 1
field sqrsum 1
field min 1
field max 1
attr interpolationmode  none
attr source  count(arrival)
attr title  "arrival perc, histogram"
bin	-INF	0
bin	0	0
bin	1	1
bin	2	0
statistic RandomGeometricGraph.rgnv[3] 	arrivalTime:histogram
field count 1
field mean 25.462
field stddev nan
field sum 25.462
field sqrsum 648.313444
field min 25.462
field max 25.462
attr interpolationmode  none
attr source  arrivalTime
attr title  "arrival time, histogram"
bin	-INF	0
bin	24.962	0
bin	24.995333333333	0
bin	25.028666666667	0
bin	25.062	0
bin	25.095333333333	0
bin	25.128666666667	0
bin	25.162	0
bin	25.195333333333	0
bin	25.228666666667	0
bin	25.262	0
bin	25.295333333333	0
bin	25.328666666667	0
bin	25.362	0
bin	25.395333333333	0
bin	25.428666666667	0
bin	25.462	1
bin	25.495333333333	0
bin	25.528666666667	0
bin	25.562	0
bin	25.595333333333	0
bin	25.628666666667	0
bin	25.662	0
bin	25.695333333333	0
bin	25.728666666667	0
bin	25.762	0
bin	25.795333333333	0
bin	25.828666666667	0
bin	25.862	0
bin	25.895333333333	0
bin	25.928666666667	0
bin	25.962	0
statistic RandomGeometricGraph.rgnv[3] 	arrivalPerc:histogram
field count 1
field mean 1
field stddev nan
field sum 1
field sqrsum 1
field min 1
field max 1
attr interpolationmode  none
attr source  count(arrival)
attr title  "arrival perc, histogram"
bin	-INF	0
bin	0	0
bin	1	1
bin	2	0
statistic RandomGeometricGraph.rgnv[4] 	arrivalTime:histogram
field count 1
field mean 182.254
field stddev nan
field sum 182.254
field sqrsum 33216.520516
field min 182.254
field max 182.254
attr interpolationmode  none
attr source  arrivalTime
attr title  "arrival time, histogram"
bin	-INF	0
bin	181.754	0
bin	181.78733333333	0
bin	181.82066666667	0
bin	181.854	0
bin	181.88733333333	0
bin	181.92066666667	0
bin	181.954	0
bin	181.98733333333	0
bin	182.02066666667	0
bin	182.054	0
bin	182.08733333333	0
bin	182.12066666667	0
bin	182.154	0
bin	182.18733333333	0
bin	182.22066666667	0
bin	182.254	1
bin	182.28733333333	0
bin	182.32066666667	0
bin	182.354	0
bin	182.38733333333	0
bin	182.42066666667	0
bin	182.454	0
bin	182.48733333333	0
bin	182.52066666667	0
bin	182.554	0
bin	182.58733333333	0
bin	182.62066666667	0
bin	182.654	0
bin	182.68733333333	0
bin	182.72066666667	0
bin	182.754	0
statistic RandomGeometricGraph.rgnv[4] 	arrivalPerc:histogram
field count 1
field mean 1
field stddev nan
field sum 1
field sqrsum 1
field min 1
field max 1
attr interpolationmode  none
attr source  count(arrival)
attr title  "arrival perc, histogram"
bin	-INF	0
bin	0	0
bin	1	1
bin	2	0
statistic RandomGeometricGraph.rgnv[5] 	arrivalTime:histogram
field count 1
field mean 218.967
field stddev nan
field sum 218.967
field sqrsum 47946.547089
field min 218.967
field max 218.967
attr interpolationmode  none
attr source  arrivalTime
attr title  "arrival time, histogram"
bin	-INF	0
bin	218.467	0
bin	218.50033333333	0
bin	218.53366666667	0
bin	218.567	0
bin	218.60033333333	0
bin	218.63366666667	0
bin	218.667	0
bin	218.70033333333	0
bin	218.73366666667	0
bin	218.767	0
bin	218.80033333333	0
bin	218.83366666667	0
bin	218.867	0
bin	218.90033333333	0
bin	218.93366666667	0
bin	218.967	1
bin	219.00033333333	0
bin	219.03366666667	0
bin	219.067	0
bin	219.10033333333	0
bin	219.13366666667	0
bin	219.167	0
bin	219.20033333333	0
bin	219.23366666667	0
bin	219.267	0
bin	219.30033333333	0
bin	219.33366666667	0
bin	219.367	0
bin	219.40033333333	0
bin	219.43366666667	0
bin	219.467	0
statistic RandomGeometricGraph.rgnv[5] 	arrivalPerc:histogram
field count 1
field mean 1
field stddev nan
field sum 1
field sqrsum 1
field min 1
field max 1
attr interpolationmode  none
attr source  count(arrival)
attr title  "arrival perc, histogram"
bin	-INF	0
bin	0	0
bin	1	1
bin	2	0
statistic RandomGeometricGraph.rgnv[6] 	arrivalTime:histogram
field count 1
field mean 121.109
field stddev nan
field sum 121.109
field sqrsum 14667.389881
field min 121.109
field max 121.109
attr interpolationmode  none
attr source  arrivalTime
attr title  "arrival time, histogram"
bin	-INF	0
bin	120.609	0
bin	120.64233333333	0
bin	120.67566666667	0
bin	120.709	0
bin	120.74233333333	0
bin	120.77566666667	0
bin	120.809	0
bin	120.84233333333	0
bin	120.87566666667	0
bin	120.909	0
bin	120.94233333333	0
bin	120.97566666667	0
bin	121.009	0
bin	121.04233333333	0
bin	121.07566666667	0
bin	121.109	1
bin	121.14233333333	0
bin	121.17566666667	0
bin	121.209	0
bin	121.24233333333	0
bin	121.27566666667	0
bin	121.309	0
bin	121.34233333333	0
bin	121.37566666667	0
bin	121.409	0
bin	121.44233333333	0
bin	121.47566666667	0
bin	121.509	0
bin	121.54233333333	0
bin	121.57566666667	0
bin	121.609	0
statistic RandomGeometricGraph.rgnv[6] 	arrivalPerc:histogram
field count 1
field mean 1
field stddev nan
field sum 1
field sqrsum 1
field min 1
field max 1
attr interpolationmode  none
attr source  count(arrival)
attr title  "arrival perc, histogram"
bin	-INF	0
bin	0	0
bin	1	1
bin	2	0
statistic RandomGeometricGraph.rgnv[7] 	arrivalTime:histogram
field count 1
field mean 218.947
field stddev nan
field sum 218.947
field sqrsum 47937.788809
field min 218.947
field max 218.947
attr interpolationmode  none
attr source  arrivalTime
attr title  "arrival time, histogram"
bin	-INF	0
bin	218.447	0
bin	218.48033333333	0
bin	218.51366666667	0
bin	218.547	0
bin	218.58033333333	0
bin	218.61366666667	0
bin	218.647	0
bin	218.68033333333	0
bin	218.71366666667	0
bin	218.747	0
bin	218.78033333333	0
bin	218.81366666667	0
bin	218.847	0
bin	218.88033333333	0
bin	218.91366666667	0
bin	218.947	1
bin	218.98033333333	0
bin	219.01366666667	0
bin	219.047	0
bin	219.08033333333	0
bin	219.11366666667	0
bin	219.147	0
bin	219.18033333333	0
bin	219.21366666667	0
bin	219.247	0
bin	219.28033333333	0
bin	219.31366666667	0
bin	219.347	0
bin	219.38033333333	0
bin	219.41366666667	0
bin	219.447	0
statistic RandomGeometricGraph.rgnv[7] 	arrivalPerc:histogram
field count 1
field mean 1
field stddev nan
field sum 1
field sqrsum 1
field min 1
field max 1
attr interpolationmode  none
attr source  count(arrival)
attr title  "arrival perc, histogram"
bin	-INF	0
bin	0	0
bin	1	1
bin	2	0
statistic RandomGeometricGraph.rgnv[8] 	arrivalTime:histogram
field count 1
field mean 42.703
field stddev nan
field sum 42.703
field sqrsum 1823.546209
field min 42.703
field max 42.703
attr interpolationmode  none
attr source  arrivalTime
attr title  "arrival time, histogram"
bin	-INF	0
bin	42.203	0
bin	42.236333333333	0
bin	42.269666666667	0
bin	42.303	0
bin	42.336333333333	0
bin	42.369666666667	0
bin	42.403	0
bin	42.436333333333	0
bin	42.469666666667	0
bin	42.503	0
bin	42.536333333333	0
bin	42.569666666667	0
bin	42.603	0
bin	42.636333333333	0
bin	42.669666666667	0
bin	42.703	1
bin	42.736333333333	0
bin	42.769666666667	0
bin	42.803	0
bin	42.836333333333	0
bin	42.869666666667	0
bin	42.903	0
bin	42.936333333333	0
bin	42.969666666667	0
bin	43.003	0
bin	43.036333333333	0
bin	43.069666666667	0
bin	43.103	0
bin	43.136333333333	0
bin	43.169666666667	0
bin	43.203	0
statistic RandomGeometricGraph.rgnv[8] 	arrivalPerc:histogram
field count 1
field mean 1
field stddev nan
field sum 1
field sqrsum 1
field min 1
field max 1
attr interpolationmode  none
attr source  count(arrival)
attr title  "arrival perc, histogram"
bin	-INF	0
bin	0	0
bin	1	1
bin	2	0
statistic RandomGeometricGraph.rgnv[9] 	arrivalTime:histogram
field count 1
field mean 128.33
field stddev nan
field sum 128.33
field sqrsum 16468.5889
field min 128.33
field max 128.33
attr interpolationmode  none
attr source  arrivalTime
attr title  "arrival time, histogram"
bin	-INF	0
bin	127.83	0
bin	127.86333333333	0
bin	127.89666666667	0
bin	127.93	0
bin	127.96333333333	0
bin	127.99666666667	0
bin	128.03	0
bin	128.06333333333	0
bin	128.09666666667	0
bin	128.13	0
bin	128.16333333333	0
bin	128.19666666667	0
bin	128.23	0
bin	128.26333333333	0
bin	128.29666666667	0
bin	128.33	1
bin	128.36333333333	0
bin	128.39666666667	0
bin	128.43	0
bin	128.46333333333	0
bin	128.49666666667	0
bin	128.53	0
bin	128.56333333333	0
bin	128.59666666667	0
bin	128.63	0
bin	128.66333333333	0
bin	128.69666666667	0
bin	128.73	0
bin	128.76333333333	0
bin	128.79666666667	0
bin	128.83	0
statistic RandomGeometricGraph.rgnv[9] 	arrivalPerc:histogram
field count 1
field mean 1
field stddev nan
field sum 1
field sqrsum 1
field min 1
field max 1
attr interpolationmode  none
attr source  count(arrival)
attr title  "arrival perc, histogram"
bin	-INF	0
bin	0	0
bin	1	1
bin	2	0
statistic RandomGeometricGraph.rgnv[10] 	arrivalTime:histogram
field count 1
field mean 128.32
field stddev nan
field sum 128.32
field sqrsum 16466.0224
field min 128.32
field max 128.32
attr interpolationmode  none
attr source  arrivalTime
attr title  "arrival time, histogram"
bin	-INF	0
bin	127.82	0
bin	127.85333333333	0
bin	127.88666666667	0
bin	127.92	0
bin	127.95333333333	0
bin	127.98666666667	0
bin	128.02	0
bin	128.05333333333	0
bin	128.08666666667	0
bin	128.12	0
bin	128.15333333333	0
bin	128.18666666667	0
bin	128.22	0
bin	128.25333333333	0
bin	128.28666666667	0
bin	128.32	1
bin	128.35333333333	0
bin	128.38666666667	0
bin	128.42	0
bin	128.45333333333	0
bin	128.48666666667	0
bin	128.52	0
bin	128.55333333333	0
bin	128.58666666667	0
bin	128.62	0
bin	128.65333333333	0
bin	128.68666666667	0
bin	128.72	0
bin	128.75333333333	0
bin	128.78666666667	0
bin	128.82	0
statistic RandomGeometricGraph.rgnv[10] 	arrivalPerc:histogram
field count 1
field mean 1
field stddev nan
field sum 1
field sqrsum 1
field min 1
field max 1
attr interpolationmode  none
attr source  count(arrival)
attr title  "arrival perc, histogram"
bin	-INF	0
bin	0	0
bin	1	1
bin	2	0
statistic RandomGeometricGraph.rgnv[11] 	arrivalTime:histogram
field count 1
field mean 170.033
field stddev nan
field sum 170.033
field sqrsum 28911.221089
field min 170.033
field max 170.033
attr interpolationmode  none
attr source  arrivalTime
attr title  "arrival time, histogram"
bin	-INF	0
bin	169.533	0
bin	169.56633333333	0
bin	169.59966666667	0
bin	169.633	0
bin	169.66633333333	0
bin	169.69966666667	0
bin	169.733	0
bin	169.76633333333	0
bin	169.79966666667	0
bin	169.833	0
bin	169.86633333333	0
bin	169.89966666667	0
bin	169.933	0
bin	169.96633333333	0
bin	169.99966666667	0
bin	170.033	1
bin	170.06633333333	0
bin	170.09966666667	0
bin	170.133	0
bin	170.16633333333	0
bin	170.19966666667	0
bin	170.233	0
bin	170.26633333333	0
bin	170.29966666667	0
bin	170.333	0
bin	170.36633333333	0
bin	170.39966666667	0
bin	170.433	0
bin	170.46633333333	0
bin	170.49966666667	0
bin	170.533	0
statistic RandomGeometricGraph.rgnv[11] 	arrivalPerc:histogram
field count 1
field mean 1
field stddev nan
field sum 1
field sqrsum 1
field min 1
field max 1
attr interpolationmode  none
attr source  count(arrival)
attr title  "arrival perc, histogram"
bin	-INF	0
bin	0	0
bin	1	1
bin	2	0
statistic RandomGeometricGraph.rgnv[12] 	arrivalTime:histogram
field count 1
field mean 170.023
field stddev nan
field sum 170.023
field sqrsum 28907.820529
field min 170.023
field max 170.023
attr interpolationmode  none
attr source  arrivalTime
attr title  "arrival time, histogram"
bin	-INF	0
bin	169.523	0
bin	169.55633333333	0
bin	169.58966666667	0
bin	169.623	0
bin	169.65633333333	0
bin	169.68966666667	0
bin	169.723	0
bin	169.75633333333	0
bin	169.78966666667	0
bin	169.823	0
bin	169.85633333333	0
bin	169.88966666667	0
bin	169.923	0
bin	169.95633333333	0
bin	169.98966666667	0
bin	170.023	1
bin	170.05633333333	0
bin	170.08966666667	0
bin	170.123	0
bin	170.15633333333	0
bin	170.18966666667	0
bin	170.223	0
bin	170.25633333333	0
bin	170.28966666667	0
bin	170.323	0
bin	170.35633333333	0
bin	170.38966666667	0
bin	170.423	0
bin	170.45633333333	0
bin	170.48966666667	0
bin	170.523	0
statistic RandomGeometricGraph.rgnv[12] 	arrivalPerc:histogram
field count 1
field mean 1
field stddev nan
field sum 1
field sqrsum 1
field min 1
field max 1
attr interpolationmode  none
attr source  count(arrival)
attr title  "arrival perc, histogram"
bin	-INF	0
bin	0	0
bin	1	1
bin	2	0
statistic RandomGeometricGraph.rgnv[13] 	arrivalTime:histogram
field count 1
field mean 91.627
field stddev nan
field sum 91.627
field sqrsum 8395.507129
field min 91.627
field max 91.627
attr interpolationmode  none
attr source  arrivalTime
attr title  "arrival time, histogram"
bin	-INF	0
bin	91.127	0
bin	91.160333333333	0
bin	91.193666666667	0
bin	91.227	0
bin	91.260333333333	0
bin	91.293666666667	0
bin	91.327	0
bin	91.360333333333	0
bin	91.393666666667	0
bin	91.427	0
bin	91.460333333333	0
bin	91.493666666667	0
bin	91.527	0
bin	91.560333333333	0
bin	91.593666666667	0
bin	91.627	1
bin	91.660333333333	0
bin	91.693666666667	0
bin	91.727	0
bin	91.760333333333	0
bin	91.793666666667	0
bin	91.827	0
bin	91.860333333333	0
bin	91.893666666667	0
bin	91.927	0
bin	91.960333333333	0
bin	91.993666666667	0
bin	92.027	0
bin	92.060333333333	0
bin	92.093666666667	0
bin	92.127	0
statistic RandomGeometricGraph.rgnv[13] 	arrivalPerc:histogram
field count 1
field mean 1
field stddev nan
field sum 1
field sqrsum 1
field min 1
field max 1
attr interpolationmode  none
attr source  count(arrival)
attr title  "arrival perc, histogram"
bin	-INF	0
bin	0	0
bin	1	1
bin	2	0
statistic RandomGeometricGraph.rgnv[14] 	arrivalTime:histogram
field count 1
field mean 182.264
field stddev nan
field sum 182.264
field sqrsum 33220.165696
field min 182.264
field max 182.264
attr interpolationmode  none
attr source  arrivalTime
attr title  "arrival time, histogram"
bin	-INF	0
bin	181.764	0
bin	181.79733333333	0
bin	181.83066666667	0
bin	181.864	0
bin	181.89733333333	0
bin	181.93066666667	0
bin	181.964	0
bin	181.99733333333	0
bin	182.03066666667	0
bin	182.064	0
bin	182.09733333333	0
bin	182.13066666667	0
bin	182.164	0
bin	182.19733333333	0
bin	182.23066666667	0
bin	182.264	1
bin	182.29733333333	0
bin	182.33066666667	0
bin	182.364	0
bin	182.39733333333	0
bin	182.43066666667	0
bin	182.464	0
bin	182.49733333333	0
bin	182.53066666667	0
bin	182.564	0
bin	182.59733333333	0
bin	182.63066666667	0
bin	182.664	0
bin	182.69733333333	0
bin	182.73066666667	0
bin	182.764	0
statistic RandomGeometricGraph.rgnv[14] 	arrivalPerc:histogram
field count 1
field mean 1
field stddev nan
field sum 1
field sqrsum 1
field min 1
field max 1
attr interpolationmode  none
attr source  count(arrival)
attr title  "arrival perc, histogram"
bin	-INF	0
bin	0	0
bin	1	1
bin	2	0
statistic RandomGeometricGraph.rgnv[15] 	arrivalTime:histogram
field count 1
field mean 194.495
field stddev nan
field sum 194.495
field sqrsum 37828.305025
field min 194.495
field max 194.495
attr interpolationmode  none
attr source  arrivalTime
attr title  "arrival time, histogram"
bin	-INF	0
bin	193.995	0
bin	194.02833333333	0
bin	194.06166666667	0
bin	194.095	0
bin	194.12833333333	0
bin	194.16166666667	0
bin	194.195	0
bin	194.22833333333	0
bin	194.26166666667	0
bin	194.295	0
bin	194.32833333333	0
bin	194.36166666667	0
bin	194.395	0
bin	194.42833333333	0
bin	194.46166666667	0
bin	194.495	1
bin	194.52833333333	0
bin	194.56166666667	0
bin	194.595	0
bin	194.62833333333	0
bin	194.66166666667	0
bin	194.695	0
bin	194.72833333333	0
bin	194.76166666667	0
bin	194.795	0
bin	194.82833333333	0
bin	194.86166666667	0
bin	194.895	0
bin	194.92833333333	0
bin	194.96166666667	0
bin	194.995	0
statistic RandomGeometricGraph.rgnv[15] 	arrivalPerc:histogram
field count 1
field mean 1
field stddev nan
field sum 1
field sqrsum 1
field min 1
field max 1
attr interpolationmode  none
attr source  count(arrival)
attr title  "arrival perc, histogram"
bin	-INF	0
bin	0	0
bin	1	1
bin	2	0
statistic RandomGeometricGraph.rgnv[16] 	arrivalTime:histogram
field count 1
field mean 98.848
field stddev nan
field sum 98.848
field sqrsum 9770.927104
field min 98.848
field max 98.848
attr interpolationmode  none
attr source  arrivalTime
attr title  "arrival time, histogram"
bin	-INF	0
bin	98.348	0
bin	98.381333333333	0
bin	98.414666666667	0
bin	98.448	0
bin	98.481333333333	0
bin	98.514666666667	0
bin	98.548	0
bin	98.581333333333	0
bin	98.614666666667	0
bin	98.648	0
bin	98.681333333333	0
bin	98.714666666667	0
bin	98.748	0
bin	98.781333333333	0
bin	98.814666666667	0
bin	98.848	1
bin	98.881333333333	0
bin	98.914666666667	0
bin	98.948	0
bin	98.981333333333	0
bin	99.014666666667	0
bin	99.048	0
bin	99.081333333333	0
bin	99.114666666667	0
bin	99.148	0
bin	99.181333333333	0
bin	99.214666666667	0
bin	99.248	0
bin	99.281333333333	0
bin	99.314666666667	0
bin	99.348	0
statistic RandomGeometricGraph.rgnv[16] 	arrivalPerc:histogram
field count 1
field mean 1
field stddev nan
field sum 1
field sqrsum 1
field min 1
field max 1
attr interpolationmode  none
attr source  count(arrival)
attr title  "arrival perc, histogram"
bin	-INF	0
bin	0	0
bin	1	1
bin	2	0
statistic RandomGeometricGraph.rgnv[17] 	arrivalTime:histogram
field count 1
field mean 140.561
field stddev nan
field sum 140.561
field sqrsum 19757.394721
field min 140.561
field max 140.561
attr interpolationmode  none
attr source  arrivalTime
attr title  "arrival time, histogram"
bin	-INF	0
bin	140.061	0
bin	140.09433333333	0
bin	140.12766666667	0
bin	140.161	0
bin	140.19433333333	0
bin	140.22766666667	0
bin	140.261	0
bin	140.29433333333	0
bin	140.32766666667	0
bin	140.361	0
bin	140.39433333333	0
bin	140.42766666667	0
bin	140.461	0
bin	140.49433333333	0
bin	140.52766666667	0
bin	140.561	1
bin	140.59433333333	0
bin	140.62766666667	0
bin	140.661	0
bin	140.69433333333	0
bin	140.72766666667	0
bin	140.761	0
bin	140.79433333333	0
bin	140.82766666667	0
bin	140.861	0
bin	140.89433333333	0
bin	140.92766666667	0
bin	140.961	0
bin	140.99433333333	0
bin	141.02766666667	0
bin	141.061	0
statistic RandomGeometricGraph.rgnv[17] 	arrivalPerc:histogram
field count 1
field mean 1
field stddev nan
field sum 1
field sqrsum 1
field min 1
field max 1
attr interpolationmode  none
attr source  count(arrival)
attr title  "arrival perc, histogram"
bin	-INF	0
bin	0	0
bin	1	1
bin	2	0
statistic RandomGeometricGraph.rgnv[18] 	arrivalTime:histogram
field count 1
field mean 37.703
field stddev nan
field sum 37.703
field sqrsum 1421.516209
field min 37.703
field max 37.703
attr interpolationmode  none
attr source  arrivalTime
attr title  "arrival time, histogram"
bin	-INF	0
bin	37.203	0
bin	37.236333333333	0
bin	37.269666666667	0
bin	37.303	0
bin	37.336333333333	0
bin	37.369666666667	0
bin	37.403	0
bin	37.436333333333	0
bin	37.469666666667	0
bin	37.503	0
bin	37.536333333333	0
bin	37.569666666667	0
bin	37.603	0
bin	37.636333333333	0
bin	37.669666666667	0
bin	37.703	1
bin	37.736333333333	0
bin	37.769666666667	0
bin	37.803	0
bin	37.836333333333	0
bin	37.869666666667	0
bin	37.903	0
bin	37.936333333333	0
bin	37.969666666667	0
bin	38.003	0
bin	38.036333333333	0
bin	38.069666666667	0
bin	38.103	0
bin	38.136333333333	0
bin	38.169666666667	0
bin	38.203	0
statistic RandomGeometricGraph.rgnv[18] 	arrivalPerc:histogram
field count 1
field mean 1
field stddev nan
field sum 1
field sqrsum 1
field min 1
field max 1
attr interpolationmode  none
attr source  count(arrival)
attr title  "arrival perc, histogram"
bin	-INF	0
bin	0	0
bin	1	1
bin	2	0
statistic RandomGeometricGraph.rgnv[19] 	arrivalTime:histogram
field count 1
field mean 157.792
field stddev nan
field sum 157.792
field sqrsum 24898.315264
field min 157.792
field max 157.792
attr interpolationmode  none
attr source  arrivalTime
attr title  "arrival time, histogram"
bin	-INF	0
bin	157.292	0
bin	157.32533333333	0
bin	157.35866666667	0
bin	157.392	0
bin	157.42533333333	0
bin	157.45866666667	0
bin	157.492	0
bin	157.52533333333	0
bin	157.55866666667	0
bin	157.592	0
bin	157.62533333333	0
bin	157.65866666667	0
bin	157.692	0
bin	157.72533333333	0
bin	157.75866666667	0
bin	157.792	1
bin	157.82533333333	0
bin	157.85866666667	0
bin	157.892	0
bin	157.92533333333	0
bin	157.95866666667	0
bin	157.992	0
bin	158.02533333333	0
bin	158.05866666667	0
bin	158.092	0
bin	158.12533333333	0
bin	158.15866666667	0
bin	158.192	0
bin	158.22533333333	0
bin	158.25866666667	0
bin	158.292	0
statistic RandomGeometricGraph.rgnv[19] 	arrivalPerc:histogram
field count 1
field mean 1
field stddev nan
field sum 1
field sqrsum 1
field min 1
field max 1
attr interpolationmode  none
attr source  count(arrival)
attr title  "arrival perc, histogram"
bin	-INF	0
bin	0	0
bin	1	1
bin	2	0
statistic RandomGeometricGraph.rgnv[20] 	arrivalTime:histogram
field count 1
field mean 108.878
field stddev nan
field sum 108.878
field sqrsum 11854.418884
field min 108.878
field max 108.878
attr interpolationmode  none
attr source  arrivalTime
attr title  "arrival time, histogram"
bin	-INF	0
bin	108.378	0
bin	108.41133333333	0
bin	108.44466666667	0
bin	108.478	0
bin	108.51133333333	0
bin	108.54466666667	0
bin	108.578	0
bin	108.61133333333	0
bin	108.64466666667	0
bin	108.678	0
bin	108.71133333333	0
bin	108.74466666667	0
bin	108.778	0
bin	108.81133333333	0
bin	108.84466666667	0
bin	108.878	1
bin	108.91133333333	0
bin	108.94466666667	0
bin	108.978	0
bin	109.01133333333	0
bin	109.04466666667	0
bin	109.078	0
bin	109.11133333333	0
bin	109.14466666667	0
bin	109.178	0
bin	109.21133333333	0
bin	109.24466666667	0
bin	109.278	0
bin	109.31133333333	0
bin	109.34466666667	0
bin	109.378	0
statistic RandomGeometricGraph.rgnv[20] 	arrivalPerc:histogram
field count 1
field mean 1
field stddev nan
field sum 1
field sqrsum 1
field min 1
field max 1
attr interpolationmode  none
attr source  count(arrival)
attr title  "arrival perc, histogram"
bin	-INF	0
bin	0	0
bin	1	1
bin	2	0
statistic RandomGeometricGraph.rgnv[21] 	arrivalTime:histogram
field count 1
field mean 37.693
field stddev nan
field sum 37.693
field sqrsum 1420.762249
field min 37.693
field max 37.693
attr interpolationmode  none
attr source  arrivalTime
attr title  "arrival time, histogram"
bin	-INF	0
bin	37.193	0
bin	37.226333333333	0
bin	37.259666666667	0
bin	37.293	0
bin	37.326333333333	0
bin	37.359666666667	0
bin	37.393	0
bin	37.426333333333	0
bin	37.459666666667	0
bin	37.493	0
bin	37.526333333333	0
bin	37.559666666667	0
bin	37.593	0
bin	37.626333333333	0
bin	37.659666666667	0
bin	37.693	1
bin	37.726333333333	0
bin	37.759666666667	0
bin	37.793	0
bin	37.826333333333	0
bin	37.859666666667	0
bin	37.893	0
bin	37.926333333333	0
bin	37.959666666667	0
bin	37.993	0
bin	38.026333333333	0
bin	38.059666666667	0
bin	38.093	0
bin	38.126333333333	0
bin	38.159666666667	0
bin	38.193	0
statistic RandomGeometricGraph.rgnv[21] 	arrivalPerc:histogram
field count 1
field mean 1
field stddev nan
field sum 1
field sqrsum 1
field min 1
field max 1
attr interpolationmode  none
attr source  count(arrival)
attr title  "arrival perc, histogram"
bin	-INF	0
bin	0	0
bin	1	1
bin	2	0
statistic RandomGeometricGraph.rgnv[22] 	arrivalTime:histogram
field count 1
field mean 67.165
field stddev nan
field sum 67.165
field sqrsum 4511.137225
field min 67.165
field max 67.165
attr interpolationmode  none
attr source  arrivalTime
attr title  "arrival time, histogram"
bin	-INF	0
bin	66.665	0
bin	66.698333333333	0
bin	66.731666666667	0
bin	66.765	0
bin	66.798333333333	0
bin	66.831666666667	0
bin	66.865	0
bin	66.898333333333	0
bin	66.931666666667	0
bin	66.965	0
bin	66.998333333333	0
bin	67.031666666667	0
bin	67.065	0
bin	67.098333333333	0
bin	67.131666666667	0
bin	67.165	1
bin	67.198333333333	0
bin	67.231666666667	0
bin	67.265	0
bin	67.298333333333	0
bin	67.331666666667	0
bin	67.365	0
bin	67.398333333333	0
bin	67.431666666667	0
bin	67.465	0
bin	67.498333333333	0
bin	67.531666666667	0
bin	67.565	0
bin	67.598333333333	0
bin	67.631666666667	0
bin	67.665	0
statistic RandomGeometricGraph.rgnv[22] 	arrivalPerc:histogram
field count 1
field mean 1
field stddev nan
field sum 1
field sqrsum 1
field min 1
field max 1
attr interpolationmode  none
attr source  count(arrival)
attr title  "arrival perc, histogram"
bin	-INF	0
bin	0	0
bin	1	1
bin	2	0
statistic RandomGeometricGraph.rgnv[23] 	arrivalTime:histogram
field count 1
field mean 140.571
field stddev nan
field sum 140.571
field sqrsum 19760.206041
field min 140.571
field max 140.571
attr interpolationmode  none
attr source  arrivalTime
attr title  "arrival time, histogram"
bin	-INF	0
bin	140.071	0
bin	140.10433333333	0
bin	140.13766666667	0
bin	140.171	0
bin	140.20433333333	0
bin	140.23766666667	0
bin	140.271	0
bin	140.30433333333	0
bin	140.33766666667	0
bin	140.371	0
bin	140.40433333333	0
bin	140.43766666667	0
bin	140.471	0
bin	140.50433333333	0
bin	140.53766666667	0
bin	140.571	1
bin	140.60433333333	0
bin	140.63766666667	0
bin	140.671	0
bin	140.70433333333	0
bin	140.73766666667	0
bin	140.771	0
bin	140.80433333333	0
bin	140.83766666667	0
bin	140.871	0
bin	140.90433333333	0
bin	140.93766666667	0
bin	140.971	0
bin	141.00433333333	0
bin	141.03766666667	0
bin	141.071	0
statistic RandomGeometricGraph.rgnv[23] 	arrivalPerc:histogram
field count 1
field mean 1
field stddev nan
field sum 1
field sqrsum 1
field min 1
field max 1
attr interpolationmode  none
attr source  count(arrival)
attr title  "arrival perc, histogram"
bin	-INF	0
bin	0	0
bin	1	1
bin	2	0
statistic RandomGeometricGraph.rgnv[24] 	arrivalTime:histogram
field count 1
field mean 128.33
field stddev nan
field sum 128.33
field sqrsum 16468.5889
field min 128.33
field max 128.33
attr interpolationmode  none
attr source  arrivalTime
attr title  "arrival time, histogram"
bin	-INF	0
bin	127.83	0
bin	127.86333333333	0
bin	127.89666666667	0
bin	127.93	0
bin	127.96333333333	0
bin	127.99666666667	0
bin	128.03	0
bin	128.06333333333	0
bin	128.09666666667	0
bin	128.13	0
bin	128.16333333333	0
bin	128.19666666667	0
bin	128.23	0
bin	128.26333333333	0
bin	128.29666666667	0
bin	128.33	1
bin	128.36333333333	0
bin	128.39666666667	0
bin	128.43	0
bin	128.46333333333	0
bin	128.49666666667	0
bin	128.53	0
bin	128.56333333333	0
bin	128.59666666667	0
bin	128.63	0
bin	128.66333333333	0
bin	128.69666666667	0
bin	128.73	0
bin	128.76333333333	0
bin	128.79666666667	0
bin	128.83	0
statistic RandomGeometricGraph.rgnv[24] 	arrivalPerc:histogram
field count 1
field mean 1
field stddev nan
field sum 1
field sqrsum 1
field min 1
field max 1
attr interpolationmode  none
attr source  count(arrival)
attr title  "arrival perc, histogram"
bin	-INF	0
bin	0	0
bin	1	1
bin	2	0
statistic RandomGeometricGraph.rgnv[25] 	arrivalTime:histogram
field count 1
field mean 116.099
field stddev nan
field sum 116.099
field sqrsum 13478.977801
field min 116.099
field max 116.099
attr interpolationmode  none
attr source  arrivalTime
attr title  "arrival time, histogram"
bin	-INF	0
bin	115.599	0
bin	115.63233333333	0
bin	115.66566666667	0
bin	115.699	0
bin	115.73233333333	0
bin	115.76566666667	0
bin	115.799	0
bin	115.83233333333	0
bin	115.86566666667	0
bin	115.899	0
bin	115.93233333333	0
bin	115.96566666667	0
bin	115.999	0
bin	116.03233333333	0
bin	116.06566666667	0
bin	116.099	1
bin	116.13233333333	0
bin	116.16566666667	0
bin	116.199	0
bin	116.23233333333	0
bin	116.26566666667	0
bin	116.299	0
bin	116.33233333333	0
bin	116.36566666667	0
bin	116.399	0
bin	116.43233333333	0
bin	116.46566666667	0
bin	116.499	0
bin	116.53233333333	0
bin	116.56566666667	0
bin	116.599	0
statistic RandomGeometricGraph.rgnv[25] 	arrivalPerc:histogram
field count 1
field mean 1
field stddev nan
field sum 1
field sqrsum 1
field min 1
field max 1
attr interpolationmode  none
attr source  count(arrival)
attr title  "arrival perc, histogram"
bin	-INF	0
bin	0	0
bin	1	1
bin	2	0
statistic RandomGeometricGraph.rgnv[26] 	arrivalTime:histogram
field count 1
field mean 194.495
field stddev nan
field sum 194.495
field sqrsum 37828.305025
field min 194.495
field max 194.495
attr interpolationmode  none
attr source  arrivalTime
attr title  "arrival time, histogram"
bin	-INF	0
bin	193.995	0
bin	194.02833333333	0
bin	194.06166666667	0
bin	194.095	0
bin	194.12833333333	0
bin	194.16166666667	0
bin	194.195	0
bin	194.22833333333	0
bin	194.26166666667	0
bin	194.295	0
bin	194.32833333333	0
bin	194.36166666667	0
bin	194.395	0
bin	194.42833333333	0
bin	194.46166666667	0
bin	194.495	1
bin	194.52833333333	0
bin	194.56166666667	0
bin	194.595	0
bin	194.62833333333	0
bin	194.66166666667	0
bin	194.695	0
bin	194.72833333333	0
bin	194.76166666667	0
bin	194.795	0
bin	194.82833333333	0
bin	194.86166666667	0
bin	194.895	0
bin	194.92833333333	0
bin	194.96166666667	0
bin	194.995	0
statistic RandomGeometricGraph.rgnv[26] 	arrivalPerc:histogram
field count 1
field mean 1
field stddev nan
field sum 1
field sqrsum 1
field min 1
field max 1
attr interpolationmode  none
attr source  count(arrival)
attr title  "arrival perc, histogram"
bin	-INF	0
bin	0	0
bin	1	1
bin	2	0
statistic RandomGeometricGraph.rgnv[27] 	arrivalTime:histogram
field count 1
field mean 79.396
field stddev nan
field sum 79.396
field sqrsum 6303.724816
field min 79.396
field max 79.396
attr interpolationmode  none
attr source  arrivalTime
attr title  "arrival time, histogram"
bin	-INF	0
bin	78.896	0
bin	78.929333333333	0
bin	78.962666666667	0
bin	78.996	0
bin	79.029333333333	0
bin	79.062666666667	0
bin	79.096	0
bin	79.129333333333	0
bin	79.162666666667	0
bin	79.196	0
bin	79.229333333333	0
bin	79.262666666667	0
bin	79.296	0
bin	79.329333333333	0
bin	79.362666666667	0
bin	79.396	1
bin	79.429333333333	0
bin	79.462666666667	0
bin	79.496	0
bin	79.529333333333	0
bin	79.562666666667	0
bin	79.596	0
bin	79.629333333333	0
bin	79.662666666667	0
bin	79.696	0
bin	79.729333333333	0
bin	79.762666666667	0
bin	79.796	0
bin	79.829333333333	0
bin	79.862666666667	0
bin	79.896	0
statistic RandomGeometricGraph.rgnv[27] 	arrivalPerc:histogram
field count 1
field mean 1
field stddev nan
field sum 1
field sqrsum 1
field min 1
field max 1
attr interpolationmode  none
attr source  count(arrival)
attr title  "arrival perc, histogram"
bin	-INF	0
bin	0	0
bin	1	1
bin	2	0
statistic RandomGeometricGraph.rgnv[28] 	arrivalTime:histogram
field count 1
field mean 182.274
field stddev nan
field sum 182.274
field sqrsum 33223.811076
field min 182.274
field max 182.274
attr interpolationmode  none
attr source  arrivalTime
attr title  "arrival time, histogram"
bin	-INF	0
bin	181.774	0
bin	181.80733333333	0
bin	181.84066666667	0
bin	181.874	0
bin	181.90733333333	0
bin	181.94066666667	0
bin	181.974	0
bin	182.00733333333	0
bin	182.04066666667	0
bin	182.074	0
bin	182.10733333333	0
bin	182.14066666667	0
bin	182.174	0
bin	182.20733333333	0
bin	182.24066666667	0
bin	182.274	1
bin	182.30733333333	0
bin	182.34066666667	0
bin	182.374	0
bin	182.40733333333	0
bin	182.44066666667	0
bin	182.474	0
bin	182.50733333333	0
bin	182.54066666667	0
bin	182.574	0
bin	182.60733333333	0
bin	182.64066666667	0
bin	182.674	0
bin	182.70733333333	0
bin	182.74066666667	0
bin	182.774	0
statistic RandomGeometricGraph.rgnv[28] 	arrivalPerc:histogram
field count 1
field mean 1
field stddev nan
field sum 1
field sqrsum 1
field min 1
field max 1
attr interpolationmode  none
attr source  count(arrival)
attr title  "arrival perc, histogram"
bin	-INF	0
bin	0	0
bin	1	1
bin	2	0
statistic RandomGeometricGraph.rgnv[29] 	arrivalTime:histogram
field count 1
field mean 194.505
field stddev nan
field sum 194.505
field sqrsum 37832.195025
field min 194.505
field max 194.505
attr interpolationmode  none
attr source  arrivalTime
attr title  "arrival time, histogram"
bin	-INF	0
bin	194.005	0
bin	194.03833333333	0
bin	194.07166666667	0
bin	194.105	0
bin	194.13833333333	0
bin	194.17166666667	0
bin	194.205	0
bin	194.23833333333	0
bin	194.27166666667	0
bin	194.305	0
bin	194.33833333333	0
bin	194.37166666667	0
bin	194.405	0
bin	194.43833333333	0
bin	194.47166666667	0
bin	194.505	1
bin	194.53833333333	0
bin	194.57166666667	0
bin	194.605	0
bin	194.63833333333	0
bin	194.67166666667	0
bin	194.705	0
bin	194.73833333333	0
bin	194.77166666667	0
bin	194.805	0
bin	194.83833333333	0
bin	194.87166666667	0
bin	194.905	0
bin	194.93833333333	0
bin	194.97166666667	0
bin	195.005	0
statistic RandomGeometricGraph.rgnv[29] 	arrivalPerc:histogram
field count 1
field mean 1
field stddev nan
field sum 1
field sqrsum 1
field min 1
field max 1
attr interpolationmode  none
attr source  count(arrival)
attr title  "arrival perc, histogram"
bin	-INF	0
bin	0	0
bin	1	1
bin	2	0
statistic RandomGeometricGraph.rgnv[30] 	arrivalTime:histogram
field count 1
field mean 157.812
field stddev nan
field sum 157.812
field sqrsum 24904.627344
field min 157.812
field max 157.812
attr interpolationmode  none
attr source  arrivalTime
attr title  "arrival time, histogram"
bin	-INF	0
bin	157.312	0
bin	157.34533333333	0
bin	157.37866666667	0
bin	157.412	0
bin	157.44533333333	0
bin	157.47866666667	0
bin	157.512	0
bin	157.54533333333	0
bin	157.57866666667	0
bin	157.612	0
bin	157.64533333333	0
bin	157.67866666667	0
bin	157.712	0
bin	157.74533333333	0
bin	157.77866666667	0
bin	157.812	1
bin	157.84533333333	0
bin	157.87866666667	0
bin	157.912	0
bin	157.94533333333	0
bin	157.97866666667	0
bin	158.012	0
bin	158.04533333333	0
bin	158.07866666667	0
bin	158.112	0
bin	158.14533333333	0
bin	158.17866666667	0
bin	158.212	0
bin	158.24533333333	0
bin	158.27866666667	0
bin	158.312	0
statistic RandomGeometricGraph.rgnv[30] 	arrivalPerc:histogram
field count 1
field mean 1
field stddev nan
field sum 1
field sqrsum 1
field min 1
field max 1
attr interpolationmode  none
attr source  count(arrival)
attr title  "arrival perc, histogram"
bin	-INF	0
bin	0	0
bin	1	1
bin	2	0
statistic RandomGeometricGraph.rgnv[31] 	arrivalTime:histogram
field count 1
field mean 74.386
field stddev nan
field sum 74.386
field sqrsum 5533.276996
field min 74.386
field max 74.386
attr interpolationmode  none
attr source  arrivalTime
attr title  "arrival time, histogram"
bin	-INF	0
bin	73.886	0
bin	73.919333333333	0
bin	73.952666666667	0
bin	73.986	0
bin	74.019333333333	0
bin	74.052666666667	0
bin	74.086	0
bin	74.119333333333	0
bin	74.152666666667	0
bin	74.186	0
bin	74.219333333333	0
bin	74.252666666667	0
bin	74.286	0
bin	74.319333333333	0
bin	74.352666666667	0
bin	74.386	1
bin	74.419333333333	0
bin	74.452666666667	0
bin	74.486	0
bin	74.519333333333	0
bin	74.552666666667	0
bin	74.586	0
bin	74.619333333333	0
bin	74.652666666667	0
bin	74.686	0
bin	74.719333333333	0
bin	74.752666666667	0
bin	74.786	0
bin	74.819333333333	0
bin	74.852666666667	0
bin	74.886	0
statistic RandomGeometricGraph.rgnv[31] 	arrivalPerc:histogram
field count 1
field mean 1
field stddev nan
field sum 1
field sqrsum 1
field min 1
field max 1
attr interpolationmode  none
attr source  count(arrival)
attr title  "arrival perc, histogram"
bin	-INF	0
bin	0	0
bin	1	1
bin	2	0
statistic RandomGeometricGraph.rgnv[32] 	arrivalTime:histogram
field count 1
field mean 208.937
field stddev nan
field sum 208.937
field sqrsum 43654.669969
field min 208.937
field max 208.937
attr interpolationmode  none
attr source  arrivalTime
attr title  "arrival time, histogram"
bin	-INF	0
bin	208.437	0
bin	208.47033333333	0
bin	208.50366666667	0
bin	208.537	0
bin	208.57033333333	0
bin	208.60366666667	0
bin	208.637	0
bin	208.67033333333	0
bin	208.70366666667	0
bin	208.737	0
bin	208.77033333333	0
bin	208.80366666667	0
bin	208.837	0
bin	208.87033333333	0
bin	208.90366666667	0
bin	208.937	1
bin	208.97033333333	0
bin	209.00366666667	0
bin	209.037	0
bin	209.07033333333	0
bin	209.10366666667	0
bin	209.137	0
bin	209.17033333333	0
bin	209.20366666667	0
bin	209.237	0
bin	209.27033333333	0
bin	209.30366666667	0
bin	209.337	0
bin	209.37033333333	0
bin	209.40366666667	0
bin	209.437	0
statistic RandomGeometricGraph.rgnv[32] 	arrivalPerc:histogram
field count 1
field mean 1
field stddev nan
field sum 1
field sqrsum 1
field min 1
field max 1
attr interpolationmode  none
attr source  count(arrival)
attr title  "arrival perc, histogram"
bin	-INF	0
bin	0	0
bin	1	1
bin	2	0
statistic RandomGeometricGraph.rgnv[33] 	arrivalTime:histogram
field count 1
field mean 170.043
field stddev nan
field sum 170.043
field sqrsum 28914.621849
field min 170.043
field max 170.043
attr interpolationmode  none
attr source  arrivalTime
attr title  "arrival time, histogram"
bin	-INF	0
bin	169.543	0
bin	169.57633333333	0
bin	169.60966666667	0
bin	169.643	0
bin	169.67633333333	0
bin	169.70966666667	0
bin	169.743	0
bin	169.77633333333	0
bin	169.80966666667	0
bin	169.843	0
bin	169.87633333333	0
bin	169.90966666667	0
bin	169.943	0
bin	169.97633333333	0
bin	170.00966666667	0
bin	170.043	1
bin	170.07633333333	0
bin	170.10966666667	0
bin	170.143	0
bin	170.17633333333	0
bin	170.20966666667	0
bin	170.243	0
bin	170.27633333333	0
bin	170.30966666667	0
bin	170.343	0
bin	170.37633333333	0
bin	170.40966666667	0
bin	170.443	0
bin	170.47633333333	0
bin	170.50966666667	0
bin	170.543	0
statistic RandomGeometricGraph.rgnv[33] 	arrivalPerc:histogram
field count 1
field mean 1
field stddev nan
field sum 1
field sqrsum 1
field min 1
field max 1
attr interpolationmode  none
attr source  count(arrival)
attr title  "arrival perc, histogram"
bin	-INF	0
bin	0	0
bin	1	1
bin	2	0
statistic RandomGeometricGraph.rgnv[34] 	arrivalTime:histogram
field count 1
field mean 165.023
field stddev nan
field sum 165.023
field sqrsum 27232.590529
field min 165.023
field max 165.023
attr interpolationmode  none
attr source  arrivalTime
attr title  "arrival time, histogram"
bin	-INF	0
bin	164.523	0
bin	164.55633333333	0
bin	164.58966666667	0
bin	164.623	0
bin	164.65633333333	0
bin	164.68966666667	0
bin	164.723	0
bin	164.75633333333	0
bin	164.78966666667	0
bin	164.823	0
bin	164.85633333333	0
bin	164.88966666667	0
bin	164.923	0
bin	164.95633333333	0
bin	164.98966666667	0
bin	165.023	1
bin	165.05633333333	0
bin	165.08966666667	0
bin	165.123	0
bin	165.15633333333	0
bin	165.18966666667	0
bin	165.223	0
bin	165.25633333333	0
bin	165.28966666667	0
bin	165.323	0
bin	165.35633333333	0
bin	165.38966666667	0
bin	165.423	0
bin	165.45633333333	0
bin	165.48966666667	0
bin	165.523	0
statistic RandomGeometricGraph.rgnv[34] 	arrivalPerc:histogram
field count 1
field mean 1
field stddev nan
field sum 1
field sqrsum 1
field min 1
field max 1
attr interpolationmode  none
attr source  count(arrival)
attr title  "arrival perc, histogram"
bin	-INF	0
bin	0	0
bin	1	1
bin	2	0
statistic RandomGeometricGraph.rgnv[35] 	arrivalTime:histogram
field count 1
field mean 177.264
field stddev nan
field sum 177.264
field sqrsum 31422.525696
field min 177.264
field max 177.264
attr interpolationmode  none
attr source  arrivalTime
attr title  "arrival time, histogram"
bin	-INF	0
bin	176.764	0
bin	176.79733333333	0
bin	176.83066666667	0
bin	176.864	0
bin	176.89733333333	0
bin	176.93066666667	0
bin	176.964	0
bin	176.99733333333	0
bin	177.03066666667	0
bin	177.064	0
bin	177.09733333333	0
bin	177.13066666667	0
bin	177.164	0
bin	177.19733333333	0
bin	177.23066666667	0
bin	177.264	1
bin	177.29733333333	0
bin	177.33066666667	0
bin	177.364	0
bin	177.39733333333	0
bin	177.43066666667	0
bin	177.464	0
bin	177.49733333333	0
bin	177.53066666667	0
bin	177.564	0
bin	177.59733333333	0
bin	177.63066666667	0
bin	177.664	0
bin	177.69733333333	0
bin	177.73066666667	0
bin	177.764	0
statistic RandomGeometricGraph.rgnv[35] 	arrivalPerc:histogram
field count 1
field mean 1
field stddev nan
field sum 1
field sqrsum 1
field min 1
field max 1
attr interpolationmode  none
attr source  count(arrival)
attr title  "arrival perc, histogram"
bin	-INF	0
bin	0	0
bin	1	1
bin	2	0
statistic RandomGeometricGraph.rgnv[36] 	arrivalTime:histogram
field count 1
field mean 189.495
field stddev nan
field sum 189.495
field sqrsum 35908.355025
field min 189.495
field max 189.495
attr interpolationmode  none
attr source  arrivalTime
attr title  "arrival time, histogram"
bin	-INF	0
bin	188.995	0
bin	189.02833333333	0
bin	189.06166666667	0
bin	189.095	0
bin	189.12833333333	0
bin	189.16166666667	0
bin	189.195	0
bin	189.22833333333	0
bin	189.26166666667	0
bin	189.295	0
bin	189.32833333333	0
bin	189.36166666667	0
bin	189.395	0
bin	189.42833333333	0
bin	189.46166666667	0
bin	189.495	1
bin	189.52833333333	0
bin	189.56166666667	0
bin	189.595	0
bin	189.62833333333	0
bin	189.66166666667	0
bin	189.695	0
bin	189.72833333333	0
bin	189.76166666667	0
bin	189.795	0
bin	189.82833333333	0
bin	189.86166666667	0
bin	189.895	0
bin	189.92833333333	0
bin	189.96166666667	0
bin	189.995	0
statistic RandomGeometricGraph.rgnv[36] 	arrivalPerc:histogram
field count 1
field mean 1
field stddev nan
field sum 1
field sqrsum 1
field min 1
field max 1
attr interpolationmode  none
attr source  count(arrival)
attr title  "arrival perc, histogram"
bin	-INF	0
bin	0	0
bin	1	1
bin	2	0
statistic RandomGeometricGraph.rgnv[37] 	arrivalTime:histogram
field count 1
field mean 131.109
field stddev nan
field sum 131.109
field sqrsum 17189.569881
field min 131.109
field max 131.109
attr interpolationmode  none
attr source  arrivalTime
attr title  "arrival time, histogram"
bin	-INF	0
bin	130.609	0
bin	130.64233333333	0
bin	130.67566666667	0
bin	130.709	0
bin	130.74233333333	0
bin	130.77566666667	0
bin	130.809	0
bin	130.84233333333	0
bin	130.87566666667	0
bin	130.909	0
bin	130.94233333333	0
bin	130.97566666667	0
bin	131.009	0
bin	131.04233333333	0
bin	131.07566666667	0
bin	131.109	1
bin	131.14233333333	0
bin	131.17566666667	0
bin	131.209	0
bin	131.24233333333	0
bin	131.27566666667	0
bin	131.309	0
bin	131.34233333333	0
bin	131.37566666667	0
bin	131.409	0
bin	131.44233333333	0
bin	131.47566666667	0
bin	131.509	0
bin	131.54233333333	0
bin	131.57566666667	0
bin	131.609	0
statistic RandomGeometricGraph.rgnv[37] 	arrivalPerc:histogram
field count 1
field mean 1
field stddev nan
field sum 1
field sqrsum 1
field min 1
field max 1
attr interpolationmode  none
attr source  count(arrival)
attr title  "arrival perc, histogram"
bin	-INF	0
bin	0	0
bin	1	1
bin	2	0
statistic RandomGeometricGraph.rgnv[38] 	arrivalTime:histogram
field count 1
field mean 138.35
field stddev nan
field sum 138.35
field sqrsum 19140.7225
field min 138.35
field max 138.35
attr interpolationmode  none
attr source  arrivalTime
attr title  "arrival time, histogram"
bin	-INF	0
bin	137.85	0
bin	137.88333333333	0
bin	137.91666666667	0
bin	137.95	0
bin	137.98333333333	0
bin	138.01666666667	0
bin	138.05	0
bin	138.08333333333	0
bin	138.11666666667	0
bin	138.15	0
bin	138.18333333333	0
bin	138.21666666667	0
bin	138.25	0
bin	138.28333333333	0
bin	138.31666666667	0
bin	138.35	1
bin	138.38333333333	0
bin	138.41666666667	0
bin	138.45	0
bin	138.48333333333	0
bin	138.51666666667	0
bin	138.55	0
bin	138.58333333333	0
bin	138.61666666667	0
bin	138.65	0
bin	138.68333333333	0
bin	138.71666666667	0
bin	138.75	0
bin	138.78333333333	0
bin	138.81666666667	0
bin	138.85	0
statistic RandomGeometricGraph.rgnv[38] 	arrivalPerc:histogram
field count 1
field mean 1
field stddev nan
field sum 1
field sqrsum 1
field min 1
field max 1
attr interpolationmode  none
attr source  count(arrival)
attr title  "arrival perc, histogram"
bin	-INF	0
bin	0	0
bin	1	1
bin	2	0
statistic RandomGeometricGraph.rgnv[39] 	arrivalTime:histogram
field count 1
field mean 121.099
field stddev nan
field sum 121.099
field sqrsum 14664.967801
field min 121.099
field max 121.099
attr interpolationmode  none
attr source  arrivalTime
attr title  "arrival time, histogram"
bin	-INF	0
bin	120.599	0
bin	120.63233333333	0
bin	120.66566666667	0
bin	120.699	0
bin	120.73233333333	0
bin	120.76566666667	0
bin	120.799	0
bin	120.83233333333	0
bin	120.86566666667	0
bin	120.899	0
bin	120.93233333333	0
bin	120.96566666667	0
bin	120.999	0
bin	121.03233333333	0
bin	121.06566666667	0
bin	121.099	1
bin	121.13233333333	0
bin	121.16566666667	0
bin	121.199	0
bin	121.23233333333	0
bin	121.26566666667	0
bin	121.299	0
bin	121.33233333333	0
bin	121.36566666667	0
bin	121.399	0
bin	121.43233333333	0
bin	121.46566666667	0
bin	121.499	0
bin	121.53233333333	0
bin	121.56566666667	0
bin	121.599	0
statistic RandomGeometricGraph.rgnv[39] 	arrivalPerc:histogram
field count 1
field mean 1
field stddev nan
field sum 1
field sqrsum 1
field min 1
field max 1
attr interpolationmode  none
attr source  count(arrival)
attr title  "arrival perc, histogram"
bin	-INF	0
bin	0	0
bin	1	1
bin	2	0
statistic RandomGeometricGraph.rgnv[40] 	arrivalTime:histogram
field count 1
field mean 160.023
field stddev nan
field sum 160.023
field sqrsum 25607.360529
field min 160.023
field max 160.023
attr interpolationmode  none
attr source  arrivalTime
attr title  "arrival time, histogram"
bin	-INF	0
bin	159.523	0
bin	159.55633333333	0
bin	159.58966666667	0
bin	159.623	0
bin	159.65633333333	0
bin	159.68966666667	0
bin	159.723	0
bin	159.75633333333	0
bin	159.78966666667	0
bin	159.823	0
bin	159.85633333333	0
bin	159.88966666667	0
bin	159.923	0
bin	159.95633333333	0
bin	159.98966666667	0
bin	160.023	1
bin	160.05633333333	0
bin	160.08966666667	0
bin	160.123	0
bin	160.15633333333	0
bin	160.18966666667	0
bin	160.223	0
bin	160.25633333333	0
bin	160.28966666667	0
bin	160.323	0
bin	160.35633333333	0
bin	160.38966666667	0
bin	160.423	0
bin	160.45633333333	0
bin	160.48966666667	0
bin	160.523	0
statistic RandomGeometricGraph.rgnv[40] 	arrivalPerc:histogram
field count 1
field mean 1
field stddev nan
field sum 1
field sqrsum 1
field min 1
field max 1
attr interpolationmode  none
attr source  count(arrival)
attr title  "arrival perc, histogram"
bin	-INF	0
bin	0	0
bin	1	1
bin	2	0
statistic RandomGeometricGraph.rgnv[41] 	arrivalTime:histogram
field count 1
field mean 49.924
field stddev nan
field sum 49.924
field sqrsum 2492.405776
field min 49.924
field max 49.924
attr interpolationmode  none
attr source  arrivalTime
attr title  "arrival time, histogram"
bin	-INF	0
bin	49.424	0
bin	49.457333333333	0
bin	49.490666666667	0
bin	49.524	0
bin	49.557333333333	0
bin	49.590666666667	0
bin	49.624	0
bin	49.657333333333	0
bin	49.690666666667	0
bin	49.724	0
bin	49.757333333333	0
bin	49.790666666667	0
bin	49.824	0
bin	49.857333333333	0
bin	49.890666666667	0
bin	49.924	1
bin	49.957333333333	0
bin	49.990666666667	0
bin	50.024	0
bin	50.057333333333	0
bin	50.090666666667	0
bin	50.124	0
bin	50.157333333333	0
bin	50.190666666667	0
bin	50.224	0
bin	50.257333333333	0
bin	50.290666666667	0
bin	50.324	0
bin	50.357333333333	0
bin	50.390666666667	0
bin	50.424	0
statistic RandomGeometricGraph.rgnv[41] 	arrivalPerc:histogram
field count 1
field mean 1
field stddev nan
field sum 1
field sqrsum 1
field min 1
field max 1
attr interpolationmode  none
attr source  count(arrival)
attr title  "arrival perc, histogram"
bin	-INF	0
bin	0	0
bin	1	1
bin	2	0
statistic RandomGeometricGraph.rgnv[42] 	arrivalTime:histogram
field count 1
field mean 201.716
field stddev nan
field sum 201.716
field sqrsum 40689.344656
field min 201.716
field max 201.716
attr interpolationmode  none
attr source  arrivalTime
attr title  "arrival time, histogram"
bin	-INF	0
bin	201.216	0
bin	201.24933333333	0
bin	201.28266666667	0
bin	201.316	0
bin	201.34933333333	0
bin	201.38266666667	0
bin	201.416	0
bin	201.44933333333	0
bin	201.48266666667	0
bin	201.516	0
bin	201.54933333333	0
bin	201.58266666667	0
bin	201.616	0
bin	201.64933333333	0
bin	201.68266666667	0
bin	201.716	1
bin	201.74933333333	0
bin	201.78266666667	0
bin	201.816	0
bin	201.84933333333	0
bin	201.88266666667	0
bin	201.916	0
bin	201.94933333333	0
bin	201.98266666667	0
bin	202.016	0
bin	202.04933333333	0
bin	202.08266666667	0
bin	202.116	0
bin	202.14933333333	0
bin	202.18266666667	0
bin	202.216	0
statistic RandomGeometricGraph.rgnv[42] 	arrivalPerc:histogram
field count 1
field mean 1
field stddev nan
field sum 1
field sqrsum 1
field min 1
field max 1
attr interpolationmode  none
attr source  count(arrival)
attr title  "arrival perc, histogram"
bin	-INF	0
bin	0	0
bin	1	1
bin	2	0
statistic RandomGeometricGraph.rgnv[43] 	arrivalTime:histogram
field count 1
field mean 150.581
field stddev nan
field sum 150.581
field sqrsum 22674.637561
field min 150.581
field max 150.581
attr interpolationmode  none
attr source  arrivalTime
attr title  "arrival time, histogram"
bin	-INF	0
bin	150.081	0
bin	150.11433333333	0
bin	150.14766666667	0
bin	150.181	0
bin	150.21433333333	0
bin	150.24766666667	0
bin	150.281	0
bin	150.31433333333	0
bin	150.34766666667	0
bin	150.381	0
bin	150.41433333333	0
bin	150.44766666667	0
bin	150.481	0
bin	150.51433333333	0
bin	150.54766666667	0
bin	150.581	1
bin	150.61433333333	0
bin	150.64766666667	0
bin	150.681	0
bin	150.71433333333	0
bin	150.74766666667	0
bin	150.781	0
bin	150.81433333333	0
bin	150.84766666667	0
bin	150.881	0
bin	150.91433333333	0
bin	150.94766666667	0
bin	150.981	0
bin	151.01433333333	0
bin	151.04766666667	0
bin	151.081	0
statistic RandomGeometricGraph.rgnv[43] 	arrivalPerc:histogram
field count 1
field mean 1
field stddev nan
field sum 1
field sqrsum 1
field min 1
field max 1
attr interpolationmode  none
attr source  count(arrival)
attr title  "arrival perc, histogram"
bin	-INF	0
bin	0	0
bin	1	1
bin	2	0
statistic RandomGeometricGraph.rgnv[44] 	arrivalTime:histogram
field count 1
field mean 108.868
field stddev nan
field sum 108.868
field sqrsum 11852.241424
field min 108.868
field max 108.868
attr interpolationmode  none
attr source  arrivalTime
attr title  "arrival time, histogram"
bin	-INF	0
bin	108.368	0
bin	108.40133333333	0
bin	108.43466666667	0
bin	108.468	0
bin	108.50133333333	0
bin	108.53466666667	0
bin	108.568	0
bin	108.60133333333	0
bin	108.63466666667	0
bin	108.668	0
bin	108.70133333333	0
bin	108.73466666667	0
bin	108.768	0
bin	108.80133333333	0
bin	108.83466666667	0
bin	108.868	1
bin	108.90133333333	0
bin	108.93466666667	0
bin	108.968	0
bin	109.00133333333	0
bin	109.03466666667	0
bin	109.068	0
bin	109.10133333333	0
bin	109.13466666667	0
bin	109.168	0
bin	109.20133333333	0
bin	109.23466666667	0
bin	109.268	0
bin	109.30133333333	0
bin	109.33466666667	0
bin	109.368	0
statistic RandomGeometricGraph.rgnv[44] 	arrivalPerc:histogram
field count 1
field mean 1
field stddev nan
field sum 1
field sqrsum 1
field min 1
field max 1
attr interpolationmode  none
attr source  count(arrival)
attr title  "arrival perc, histogram"
bin	-INF	0
bin	0	0
bin	1	1
bin	2	0
statistic RandomGeometricGraph.rgnv[45] 	arrivalTime:histogram
field count 1
field mean 74.396
field stddev nan
field sum 74.396
field sqrsum 5534.764816
field min 74.396
field max 74.396
attr interpolationmode  none
attr source  arrivalTime
attr title  "arrival time, histogram"
bin	-INF	0
bin	73.896	0
bin	73.929333333333	0
bin	73.962666666667	0
bin	73.996	0
bin	74.029333333333	0
bin	74.062666666667	0
bin	74.096	0
bin	74.129333333333	0
bin	74.162666666667	0
bin	74.196	0
bin	74.229333333333	0
bin	74.262666666667	0
bin	74.296	0
bin	74.329333333333	0
bin	74.362666666667	0
bin	74.396	1
bin	74.429333333333	0
bin	74.462666666667	0
bin	74.496	0
bin	74.529333333333	0
bin	74.562666666667	0
bin	74.596	0
bin	74.629333333333	0
bin	74.662666666667	0
bin	74.696	0
bin	74.729333333333	0
bin	74.762666666667	0
bin	74.796	0
bin	74.829333333333	0
bin	74.862666666667	0
bin	74.896	0
statistic RandomGeometricGraph.rgnv[45] 	arrivalPerc:histogram
field count 1
field mean 1
field stddev nan
field sum 1
field sqrsum 1
field min 1
field max 1
attr interpolationmode  none
attr source  count(arrival)
attr title  "arrival perc, histogram"
bin	-INF	0
bin	0	0
bin	1	1
bin	2	0
statistic RandomGeometricGraph.rgnv[46] 	arrivalTime:histogram
field count 1
field mean 175.043
field stddev nan
field sum 175.043
field sqrsum 30640.051849
field min 175.043
field max 175.043
attr interpolationmode  none
attr source  arrivalTime
attr title  "arrival time, histogram"
bin	-INF	0
bin	174.543	0
bin	174.57633333333	0
bin	174.60966666667	0
bin	174.643	0
bin	174.67633333333	0
bin	174.70966666667	0
bin	174.743	0
bin	174.77633333333	0
bin	174.80966666667	0
bin	174.843	0
bin	174.87633333333	0
bin	174.90966666667	0
bin	174.943	0
bin	174.97633333333	0
bin	175.00966666667	0
bin	175.043	1
bin	175.07633333333	0
bin	175.10966666667	0
bin	175.143	0
bin	175.17633333333	0
bin	175.20966666667	0
bin	175.243	0
bin	175.27633333333	0
bin	175.30966666667	0
bin	175.343	0
bin	175.37633333333	0
bin	175.40966666667	0
bin	175.443	0
bin	175.47633333333	0
bin	175.50966666667	0
bin	175.543	0
statistic RandomGeometricGraph.rgnv[46] 	arrivalPerc:histogram
field count 1
field mean 1
field stddev nan
field sum 1
field sqrsum 1
field min 1
field max 1
attr interpolationmode  none
attr source  count(arrival)
attr title  "arrival perc, histogram"
bin	-INF	0
bin	0	0
bin	1	1
bin	2	0
statistic RandomGeometricGraph.rgnv[47] 	arrivalTime:histogram
field count 1
field mean 96.637
field stddev nan
field sum 96.637
field sqrsum 9338.709769
field min 96.637
field max 96.637
attr interpolationmode  none
attr source  arrivalTime
attr title  "arrival time, histogram"
bin	-INF	0
bin	96.137	0
bin	96.170333333333	0
bin	96.203666666667	0
bin	96.237	0
bin	96.270333333333	0
bin	96.303666666667	0
bin	96.337	0
bin	96.370333333333	0
bin	96.403666666667	0
bin	96.437	0
bin	96.470333333333	0
bin	96.503666666667	0
bin	96.537	0
bin	96.570333333333	0
bin	96.603666666667	0
bin	96.637	1
bin	96.670333333333	0
bin	96.703666666667	0
bin	96.737	0
bin	96.770333333333	0
bin	96.803666666667	0
bin	96.837	0
bin	96.870333333333	0
bin	96.903666666667	0
bin	96.937	0
bin	96.970333333333	0
bin	97.003666666667	0
bin	97.037	0
bin	97.070333333333	0
bin	97.103666666667	0
bin	97.137	0
statistic RandomGeometricGraph.rgnv[47] 	arrivalPerc:histogram
field count 1
field mean 1
field stddev nan
field sum 1
field sqrsum 1
field min 1
field max 1
attr interpolationmode  none
attr source  count(arrival)
attr title  "arrival perc, histogram"
bin	-INF	0
bin	0	0
bin	1	1
bin	2	0
statistic RandomGeometricGraph.rgnv[48] 	arrivalTime:histogram
field count 1
field mean 101.647
field stddev nan
field sum 101.647
field sqrsum 10332.112609
field min 101.647
field max 101.647
attr interpolationmode  none
attr source  arrivalTime
attr title  "arrival time, histogram"
bin	-INF	0
bin	101.147	0
bin	101.18033333333	0
bin	101.21366666667	0
bin	101.247	0
bin	101.28033333333	0
bin	101.31366666667	0
bin	101.347	0
bin	101.38033333333	0
bin	101.41366666667	0
bin	101.447	0
bin	101.48033333333	0
bin	101.51366666667	0
bin	101.547	0
bin	101.58033333333	0
bin	101.61366666667	0
bin	101.647	1
bin	101.68033333333	0
bin	101.71366666667	0
bin	101.747	0
bin	101.78033333333	0
bin	101.81366666667	0
bin	101.847	0
bin	101.88033333333	0
bin	101.91366666667	0
bin	101.947	0
bin	101.98033333333	0
bin	102.01366666667	0
bin	102.047	0
bin	102.08033333333	0
bin	102.11366666667	0
bin	102.147	0
statistic RandomGeometricGraph.rgnv[48] 	arrivalPerc:histogram
field count 1
field mean 1
field stddev nan
field sum 1
field sqrsum 1
field min 1
field max 1
attr interpolationmode  none
attr source  count(arrival)
attr title  "arrival perc, histogram"
bin	-INF	0
bin	0	0
bin	1	1
bin	2	0
statistic RandomGeometricGraph.rgnv[49] 	arrivalTime:histogram
field count 1
field mean 162.802
field stddev nan
field sum 162.802
field sqrsum 26504.491204
field min 162.802
field max 162.802
attr interpolationmode  none
attr source  arrivalTime
attr title  "arrival time, histogram"
bin	-INF	0
bin	162.302	0
bin	162.33533333333	0
bin	162.36866666667	0
bin	162.402	0
bin	162.43533333333	0
bin	162.46866666667	0
bin	162.502	0
bin	162.53533333333	0
bin	162.56866666667	0
bin	162.602	0
bin	162.63533333333	0
bin	162.66866666667	0
bin	162.702	0
bin	162.73533333333	0
bin	162.76866666667	0
bin	162.802	1
bin	162.83533333333	0
bin	162.86866666667	0
bin	162.902	0
bin	162.93533333333	0
bin	162.96866666667	0
bin	163.002	0
bin	163.03533333333	0
bin	163.06866666667	0
bin	163.102	0
bin	163.13533333333	0
bin	163.16866666667	0
bin	163.202	0
bin	163.23533333333	0
bin	163.26866666667	0
bin	163.302	0
statistic RandomGeometricGraph.rgnv[49] 	arrivalPerc:histogram
field count 1
field mean 1
field stddev nan
field sum 1
field sqrsum 1
field min 1
field max 1
attr interpolationmode  none
attr source  count(arrival)
attr title  "arrival perc, histogram"
bin	-INF	0
bin	0	0
bin	1	1
bin	2	0
statistic RandomGeometricGraph.rgnv[50] 	arrivalTime:histogram
field count 1
field mean 165.033
field stddev nan
field sum 165.033
field sqrsum 27235.891089
field min 165.033
field max 165.033
attr interpolationmode  none
attr source  arrivalTime
attr title  "arrival time, histogram"
bin	-INF	0
bin	164.533	0
bin	164.56633333333	0
bin	164.59966666667	0
bin	164.633	0
bin	164.66633333333	0
bin	164.69966666667	0
bin	164.733	0
bin	164.76633333333	0
bin	164.79966666667	0
bin	164.833	0
bin	164.86633333333	0
bin	164.89966666667	0
bin	164.933	0
bin	164.96633333333	0
bin	164.99966666667	0
bin	165.033	1
bin	165.06633333333	0
bin	165.09966666667	0
bin	165.133	0
bin	165.16633333333	0
bin	165.19966666667	0
bin	165.233	0
bin	165.26633333333	0
bin	165.29966666667	0
bin	165.333	0
bin	165.36633333333	0
bin	165.39966666667	0
bin	165.433	0
bin	165.46633333333	0
bin	165.49966666667	0
bin	165.533	0
statistic RandomGeometricGraph.rgnv[50] 	arrivalPerc:histogram
field count 1
field mean 1
field stddev nan
field sum 1
field sqrsum 1
field min 1
field max 1
attr interpolationmode  none
attr source  count(arrival)
attr title  "arrival perc, histogram"
bin	-INF	0
bin	0	0
bin	1	1
bin	2	0
statistic RandomGeometricGraph.rgnv[51] 	arrivalTime:histogram
field count 1
field mean 116.099
field stddev nan
field sum 116.099
field sqrsum 13478.977801
field min 116.099
field max 116.099
attr interpolationmode  none
attr source  arrivalTime
attr title  "arrival time, histogram"
bin	-INF	0
bin	115.599	0
bin	115.63233333333	0
bin	115.66566666667	0
bin	115.699	0
bin	115.73233333333	0
bin	115.76566666667	0
bin	115.799	0
bin	115.83233333333	0
bin	115.86566666667	0
bin	115.899	0
bin	115.93233333333	0
bin	115.96566666667	0
bin	115.999	0
bin	116.03233333333	0
bin	116.06566666667	0
bin	116.099	1
bin	116.13233333333	0
bin	116.16566666667	0
bin	116.199	0
bin	116.23233333333	0
bin	116.26566666667	0
bin	116.299	0
bin	116.33233333333	0
bin	116.36566666667	0
bin	116.399	0
bin	116.43233333333	0
bin	116.46566666667	0
bin	116.499	0
bin	116.53233333333	0
bin	116.56566666667	0
bin	116.599	0
statistic RandomGeometricGraph.rgnv[51] 	arrivalPerc:histogram
field count 1
field mean 1
field stddev nan
field sum 1
field sqrsum 1
field min 1
field max 1
attr interpolationmode  none
attr source  count(arrival)
attr title  "arrival perc, histogram"
bin	-INF	0
bin	0	0
bin	1	1
bin	2	0
statistic RandomGeometricGraph.rgnv[52] 	arrivalTime:histogram
field count 1
field mean 13.231
field stddev nan
field sum 13.231
field sqrsum 175.059361
field min 13.231
field max 13.231
attr interpolationmode  none
attr source  arrivalTime
attr title  "arrival time, histogram"
bin	-INF	0
bin	12.731	0
bin	12.764333333333	0
bin	12.797666666667	0
bin	12.831	0
bin	12.864333333333	0
bin	12.897666666667	0
bin	12.931	0
bin	12.964333333333	0
bin	12.997666666667	0
bin	13.031	0
bin	13.064333333333	0
bin	13.097666666667	0
bin	13.131	0
bin	13.164333333333	0
bin	13.197666666667	0
bin	13.231	1
bin	13.264333333333	0
bin	13.297666666667	0
bin	13.331	0
bin	13.364333333333	0
bin	13.397666666667	0
bin	13.431	0
bin	13.464333333333	0
bin	13.497666666667	0
bin	13.531	0
bin	13.564333333333	0
bin	13.597666666667	0
bin	13.631	0
bin	13.664333333333	0
bin	13.697666666667	0
bin	13.731	0
statistic RandomGeometricGraph.rgnv[52] 	arrivalPerc:histogram
field count 1
field mean 1
field stddev nan
field sum 1
field sqrsum 1
field min 1
field max 1
attr interpolationmode  none
attr source  count(arrival)
attr title  "arrival perc, histogram"
bin	-INF	0
bin	0	0
bin	1	1
bin	2	0
statistic RandomGeometricGraph.rgnv[53] 	arrivalTime:histogram
field count 1
field mean 165.033
field stddev nan
field sum 165.033
field sqrsum 27235.891089
field min 165.033
field max 165.033
attr interpolationmode  none
attr source  arrivalTime
attr title  "arrival time, histogram"
bin	-INF	0
bin	164.533	0
bin	164.56633333333	0
bin	164.59966666667	0
bin	164.633	0
bin	164.66633333333	0
bin	164.69966666667	0
bin	164.733	0
bin	164.76633333333	0
bin	164.79966666667	0
bin	164.833	0
bin	164.86633333333	0
bin	164.89966666667	0
bin	164.933	0
bin	164.96633333333	0
bin	164.99966666667	0
bin	165.033	1
bin	165.06633333333	0
bin	165.09966666667	0
bin	165.133	0
bin	165.16633333333	0
bin	165.19966666667	0
bin	165.233	0
bin	165.26633333333	0
bin	165.29966666667	0
bin	165.333	0
bin	165.36633333333	0
bin	165.39966666667	0
bin	165.433	0
bin	165.46633333333	0
bin	165.49966666667	0
bin	165.533	0
statistic RandomGeometricGraph.rgnv[53] 	arrivalPerc:histogram
field count 1
field mean 1
field stddev nan
field sum 1
field sqrsum 1
field min 1
field max 1
attr interpolationmode  none
attr source  count(arrival)
attr title  "arrival perc, histogram"
bin	-INF	0
bin	0	0
bin	1	1
bin	2	0
statistic RandomGeometricGraph.rgnv[54] 	arrivalTime:histogram
field count 1
field mean 108.878
field stddev nan
field sum 108.878
field sqrsum 11854.418884
field min 108.878
field max 108.878
attr interpolationmode  none
attr source  arrivalTime
attr title  "arrival time, histogram"
bin	-INF	0
bin	108.378	0
bin	108.41133333333	0
bin	108.44466666667	0
bin	108.478	0
bin	108.51133333333	0
bin	108.54466666667	0
bin	108.578	0
bin	108.61133333333	0
bin	108.64466666667	0
bin	108.678	0
bin	108.71133333333	0
bin	108.74466666667	0
bin	108.778	0
bin	108.81133333333	0
bin	108.84466666667	0
bin	108.878	1
bin	108.91133333333	0
bin	108.94466666667	0
bin	108.978	0
bin	109.01133333333	0
bin	109.04466666667	0
bin	109.078	0
bin	109.11133333333	0
bin	109.14466666667	0
bin	109.178	0
bin	109.21133333333	0
bin	109.24466666667	0
bin	109.278	0
bin	109.31133333333	0
bin	109.34466666667	0
bin	109.378	0
statistic RandomGeometricGraph.rgnv[54] 	arrivalPerc:histogram
field count 1
field mean 1
field stddev nan
field sum 1
field sqrsum 1
field min 1
field max 1
attr interpolationmode  none
attr source  count(arrival)
attr title  "arrival perc, histogram"
bin	-INF	0
bin	0	0
bin	1	1
bin	2	0
statistic RandomGeometricGraph.rgnv[55] 	arrivalTime:histogram
field count 1
field mean 113.878
field stddev nan
field sum 113.878
field sqrsum 12968.198884
field min 113.878
field max 113.878
attr interpolationmode  none
attr source  arrivalTime
attr title  "arrival time, histogram"
bin	-INF	0
bin	113.378	0
bin	113.41133333333	0
bin	113.44466666667	0
bin	113.478	0
bin	113.51133333333	0
bin	113.54466666667	0
bin	113.578	0
bin	113.61133333333	0
bin	113.64466666667	0
bin	113.678	0
bin	113.71133333333	0
bin	113.74466666667	0
bin	113.778	0
bin	113.81133333333	0
bin	113.84466666667	0
bin	113.878	1
bin	113.91133333333	0
bin	113.94466666667	0
bin	113.978	0
bin	114.01133333333	0
bin	114.04466666667	0
bin	114.078	0
bin	114.11133333333	0
bin	114.14466666667	0
bin	114.178	0
bin	114.21133333333	0
bin	114.24466666667	0
bin	114.278	0
bin	114.31133333333	0
bin	114.34466666667	0
bin	114.378	0
statistic RandomGeometricGraph.rgnv[55] 	arrivalPerc:histogram
field count 1
field mean 1
field stddev nan
field sum 1
field sqrsum 1
field min 1
field max 1
attr interpolationmode  none
attr source  count(arrival)
attr title  "arrival perc, histogram"
bin	-INF	0
bin	0	0
bin	1	1
bin	2	0
statistic RandomGeometricGraph.rgnv[56] 	arrivalTime:histogram
field count 1
field mean 116.109
field stddev nan
field sum 116.109
field sqrsum 13481.299881
field min 116.109
field max 116.109
attr interpolationmode  none
attr source  arrivalTime
attr title  "arrival time, histogram"
bin	-INF	0
bin	115.609	0
bin	115.64233333333	0
bin	115.67566666667	0
bin	115.709	0
bin	115.74233333333	0
bin	115.77566666667	0
bin	115.809	0
bin	115.84233333333	0
bin	115.87566666667	0
bin	115.909	0
bin	115.94233333333	0
bin	115.97566666667	0
bin	116.009	0
bin	116.04233333333	0
bin	116.07566666667	0
bin	116.109	1
bin	116.14233333333	0
bin	116.17566666667	0
bin	116.209	0
bin	116.24233333333	0
bin	116.27566666667	0
bin	116.309	0
bin	116.34233333333	0
bin	116.37566666667	0
bin	116.409	0
bin	116.44233333333	0
bin	116.47566666667	0
bin	116.509	0
bin	116.54233333333	0
bin	116.57566666667	0
bin	116.609	0
statistic RandomGeometricGraph.rgnv[56] 	arrivalPerc:histogram
field count 1
field mean 1
field stddev nan
field sum 1
field sqrsum 1
field min 1
field max 1
attr interpolationmode  none
attr source  count(arrival)
attr title  "arrival perc, histogram"
bin	-INF	0
bin	0	0
bin	1	1
bin	2	0
statistic RandomGeometricGraph.rgnv[57] 	arrivalTime:histogram
field count 1
field mean 86.617
field stddev nan
field sum 86.617
field sqrsum 7502.504689
field min 86.617
field max 86.617
attr interpolationmode  none
attr source  arrivalTime
attr title  "arrival time, histogram"
bin	-INF	0
bin	86.117	0
bin	86.150333333333	0
bin	86.183666666667	0
bin	86.217	0
bin	86.250333333333	0
bin	86.283666666667	0
bin	86.317	0
bin	86.350333333333	0
bin	86.383666666667	0
bin	86.417	0
bin	86.450333333333	0
bin	86.483666666667	0
bin	86.517	0
bin	86.550333333333	0
bin	86.583666666667	0
bin	86.617	1
bin	86.650333333333	0
bin	86.683666666667	0
bin	86.717	0
bin	86.750333333333	0
bin	86.783666666667	0
bin	86.817	0
bin	86.850333333333	0
bin	86.883666666667	0
bin	86.917	0
bin	86.950333333333	0
bin	86.983666666667	0
bin	87.017	0
bin	87.050333333333	0
bin	87.083666666667	0
bin	87.117	0
statistic RandomGeometricGraph.rgnv[57] 	arrivalPerc:histogram
field count 1
field mean 1
field stddev nan
field sum 1
field sqrsum 1
field min 1
field max 1
attr interpolationmode  none
attr source  count(arrival)
attr title  "arrival perc, histogram"
bin	-INF	0
bin	0	0
bin	1	1
bin	2	0
statistic RandomGeometricGraph.rgnv[58] 	arrivalTime:histogram
field count 1
field mean 96.637
field stddev nan
field sum 96.637
field sqrsum 9338.709769
field min 96.637
field max 96.637
attr interpolationmode  none
attr source  arrivalTime
attr title  "arrival time, histogram"
bin	-INF	0
bin	96.137	0
bin	96.170333333333	0
bin	96.203666666667	0
bin	96.237	0
bin	96.270333333333	0
bin	96.303666666667	0
bin	96.337	0
bin	96.370333333333	0
bin	96.403666666667	0
bin	96.437	0
bin	96.470333333333	0
bin	96.503666666667	0
bin	96.537	0
bin	96.570333333333	0
bin	96.603666666667	0
bin	96.637	1
bin	96.670333333333	0
bin	96.703666666667	0
bin	96.737	0
bin	96.770333333333	0
bin	96.803666666667	0
bin	96.837	0
bin	96.870333333333	0
bin	96.903666666667	0
bin	96.937	0
bin	96.970333333333	0
bin	97.003666666667	0
bin	97.037	0
bin	97.070333333333	0
bin	97.103666666667	0
bin	97.137	0
statistic RandomGeometricGraph.rgnv[58] 	arrivalPerc:histogram
field count 1
field mean 1
field stddev nan
field sum 1
field sqrsum 1
field min 1
field max 1
attr interpolationmode  none
attr source  count(arrival)
attr title  "arrival perc, histogram"
bin	-INF	0
bin	0	0
bin	1	1
bin	2	0
statistic RandomGeometricGraph.rgnv[59] 	arrivalTime:histogram
field count 1
field mean 189.485
field stddev nan
field sum 189.485
field sqrsum 35904.565225
field min 189.485
field max 189.485
attr interpolationmode  none
attr source  arrivalTime
attr title  "arrival time, histogram"
bin	-INF	0
bin	188.985	0
bin	189.01833333333	0
bin	189.05166666667	0
bin	189.085	0
bin	189.11833333333	0
bin	189.15166666667	0
bin	189.185	0
bin	189.21833333333	0
bin	189.25166666667	0
bin	189.285	0
bin	189.31833333333	0
bin	189.35166666667	0
bin	189.385	0
bin	189.41833333333	0
bin	189.45166666667	0
bin	189.485	1
bin	189.51833333333	0
bin	189.55166666667	0
bin	189.585	0
bin	189.61833333333	0
bin	189.65166666667	0
bin	189.685	0
bin	189.71833333333	0
bin	189.75166666667	0
bin	189.785	0
bin	189.81833333333	0
bin	189.85166666667	0
bin	189.885	0
bin	189.91833333333	0
bin	189.95166666667	0
bin	189.985	0
statistic RandomGeometricGraph.rgnv[59] 	arrivalPerc:histogram
field count 1
field mean 1
field stddev nan
field sum 1
field sqrsum 1
field min 1
field max 1
attr interpolationmode  none
attr source  count(arrival)
attr title  "arrival perc, histogram"
bin	-INF	0
bin	0	0
bin	1	1
bin	2	0
statistic RandomGeometricGraph.rgnv[60] 	arrivalTime:histogram
field count 1
field mean 152.792
field stddev nan
field sum 152.792
field sqrsum 23345.395264
field min 152.792
field max 152.792
attr interpolationmode  none
attr source  arrivalTime
attr title  "arrival time, histogram"
bin	-INF	0
bin	152.292	0
bin	152.32533333333	0
bin	152.35866666667	0
bin	152.392	0
bin	152.42533333333	0
bin	152.45866666667	0
bin	152.492	0
bin	152.52533333333	0
bin	152.55866666667	0
bin	152.592	0
bin	152.62533333333	0
bin	152.65866666667	0
bin	152.692	0
bin	152.72533333333	0
bin	152.75866666667	0
bin	152.792	1
bin	152.82533333333	0
bin	152.85866666667	0
bin	152.892	0
bin	152.92533333333	0
bin	152.95866666667	0
bin	152.992	0
bin	153.02533333333	0
bin	153.05866666667	0
bin	153.092	0
bin	153.12533333333	0
bin	153.15866666667	0
bin	153.192	0
bin	153.22533333333	0
bin	153.25866666667	0
bin	153.292	0
statistic RandomGeometricGraph.rgnv[60] 	arrivalPerc:histogram
field count 1
field mean 1
field stddev nan
field sum 1
field sqrsum 1
field min 1
field max 1
attr interpolationmode  none
attr source  count(arrival)
attr title  "arrival perc, histogram"
bin	-INF	0
bin	0	0
bin	1	1
bin	2	0
statistic RandomGeometricGraph.rgnv[61] 	arrivalTime:histogram
field count 1
field mean 128.32
field stddev nan
field sum 128.32
field sqrsum 16466.0224
field min 128.32
field max 128.32
attr interpolationmode  none
attr source  arrivalTime
attr title  "arrival time, histogram"
bin	-INF	0
bin	127.82	0
bin	127.85333333333	0
bin	127.88666666667	0
bin	127.92	0
bin	127.95333333333	0
bin	127.98666666667	0
bin	128.02	0
bin	128.05333333333	0
bin	128.08666666667	0
bin	128.12	0
bin	128.15333333333	0
bin	128.18666666667	0
bin	128.22	0
bin	128.25333333333	0
bin	128.28666666667	0
bin	128.32	1
bin	128.35333333333	0
bin	128.38666666667	0
bin	128.42	0
bin	128.45333333333	0
bin	128.48666666667	0
bin	128.52	0
bin	128.55333333333	0
bin	128.58666666667	0
bin	128.62	0
bin	128.65333333333	0
bin	128.68666666667	0
bin	128.72	0
bin	128.75333333333	0
bin	128.78666666667	0
bin	128.82	0
statistic RandomGeometricGraph.rgnv[61] 	arrivalPerc:histogram
field count 1
field mean 1
field stddev nan
field sum 1
field sqrsum 1
field min 1
field max 1
attr interpolationmode  none
attr source  count(arrival)
attr title  "arrival perc, histogram"
bin	-INF	0
bin	0	0
bin	1	1
bin	2	0
statistic RandomGeometricGraph.rgnv[62] 	arrivalTime:histogram
field count 1
field mean 84.406
field stddev nan
field sum 84.406
field sqrsum 7124.372836
field min 84.406
field max 84.406
attr interpolationmode  none
attr source  arrivalTime
attr title  "arrival time, histogram"
bin	-INF	0
bin	83.906	0
bin	83.939333333333	0
bin	83.972666666667	0
bin	84.006	0
bin	84.039333333333	0
bin	84.072666666667	0
bin	84.106	0
bin	84.139333333333	0
bin	84.172666666667	0
bin	84.206	0
bin	84.239333333333	0
bin	84.272666666667	0
bin	84.306	0
bin	84.339333333333	0
bin	84.372666666667	0
bin	84.406	1
bin	84.439333333333	0
bin	84.472666666667	0
bin	84.506	0
bin	84.539333333333	0
bin	84.572666666667	0
bin	84.606	0
bin	84.639333333333	0
bin	84.672666666667	0
bin	84.706	0
bin	84.739333333333	0
bin	84.772666666667	0
bin	84.806	0
bin	84.839333333333	0
bin	84.872666666667	0
bin	84.906	0
statistic RandomGeometricGraph.rgnv[62] 	arrivalPerc:histogram
field count 1
field mean 1
field stddev nan
field sum 1
field sqrsum 1
field min 1
field max 1
attr interpolationmode  none
attr source  count(arrival)
attr title  "arrival perc, histogram"
bin	-INF	0
bin	0	0
bin	1	1
bin	2	0
statistic RandomGeometricGraph.rgnv[63] 	arrivalTime:histogram
field count 1
field mean 116.099
field stddev nan
field sum 116.099
field sqrsum 13478.977801
field min 116.099
field max 116.099
attr interpolationmode  none
attr source  arrivalTime
attr title  "arrival time, histogram"
bin	-INF	0
bin	115.599	0
bin	115.63233333333	0
bin	115.66566666667	0
bin	115.699	0
bin	115.73233333333	0
bin	115.76566666667	0
bin	115.799	0
bin	115.83233333333	0
bin	115.86566666667	0
bin	115.899	0
bin	115.93233333333	0
bin	115.96566666667	0
bin	115.999	0
bin	116.03233333333	0
bin	116.06566666667	0
bin	116.099	1
bin	116.13233333333	0
bin	116.16566666667	0
bin	116.199	0
bin	116.23233333333	0
bin	116.26566666667	0
bin	116.299	0
bin	116.33233333333	0
bin	116.36566666667	0
bin	116.399	0
bin	116.43233333333	0
bin	116.46566666667	0
bin	116.499	0
bin	116.53233333333	0
bin	116.56566666667	0
bin	116.599	0
statistic RandomGeometricGraph.rgnv[63] 	arrivalPerc:histogram
field count 1
field mean 1
field stddev nan
field sum 1
field sqrsum 1
field min 1
field max 1
attr interpolationmode  none
attr source  count(arrival)
attr title  "arrival perc, histogram"
bin	-INF	0
bin	0	0
bin	1	1
bin	2	0
statistic RandomGeometricGraph.rgnv[64] 	arrivalTime:histogram
field count 1
field mean 133.33
field stddev nan
field sum 133.33
field sqrsum 17776.8889
field min 133.33
field max 133.33
attr interpolationmode  none
attr source  arrivalTime
attr title  "arrival time, histogram"
bin	-INF	0
bin	132.83	0
bin	132.86333333333	0
bin	132.89666666667	0
bin	132.93	0
bin	132.96333333333	0
bin	132.99666666667	0
bin	133.03	0
bin	133.06333333333	0
bin	133.09666666667	0
bin	133.13	0
bin	133.16333333333	0
bin	133.19666666667	0
bin	133.23	0
bin	133.26333333333	0
bin	133.29666666667	0
bin	133.33	1
bin	133.36333333333	0
bin	133.39666666667	0
bin	133.43	0
bin	133.46333333333	0
bin	133.49666666667	0
bin	133.53	0
bin	133.56333333333	0
bin	133.59666666667	0
bin	133.63	0
bin	133.66333333333	0
bin	133.69666666667	0
bin	133.73	0
bin	133.76333333333	0
bin	133.79666666667	0
bin	133.83	0
statistic RandomGeometricGraph.rgnv[64] 	arrivalPerc:histogram
field count 1
field mean 1
field stddev nan
field sum 1
field sqrsum 1
field min 1
field max 1
attr interpolationmode  none
attr source  count(arrival)
attr title  "arrival perc, histogram"
bin	-INF	0
bin	0	0
bin	1	1
bin	2	0
statistic RandomGeometricGraph.rgnv[65] 	arrivalTime:histogram
field count 1
field mean 121.099
field stddev nan
field sum 121.099
field sqrsum 14664.967801
field min 121.099
field max 121.099
attr interpolationmode  none
attr source  arrivalTime
attr title  "arrival time, histogram"
bin	-INF	0
bin	120.599	0
bin	120.63233333333	0
bin	120.66566666667	0
bin	120.699	0
bin	120.73233333333	0
bin	120.76566666667	0
bin	120.799	0
bin	120.83233333333	0
bin	120.86566666667	0
bin	120.899	0
bin	120.93233333333	0
bin	120.96566666667	0
bin	120.999	0
bin	121.03233333333	0
bin	121.06566666667	0
bin	121.099	1
bin	121.13233333333	0
bin	121.16566666667	0
bin	121.199	0
bin	121.23233333333	0
bin	121.26566666667	0
bin	121.299	0
bin	121.33233333333	0
bin	121.36566666667	0
bin	121.399	0
bin	121.43233333333	0
bin	121.46566666667	0
bin	121.499	0
bin	121.53233333333	0
bin	121.56566666667	0
bin	121.599	0
statistic RandomGeometricGraph.rgnv[65] 	arrivalPerc:histogram
field count 1
field mean 1
field stddev nan
field sum 1
field sqrsum 1
field min 1
field max 1
attr interpolationmode  none
attr source  count(arrival)
attr title  "arrival perc, histogram"
bin	-INF	0
bin	0	0
bin	1	1
bin	2	0
statistic RandomGeometricGraph.rgnv[66] 	arrivalTime:histogram
field count 1
field mean 108.878
field stddev nan
field sum 108.878
field sqrsum 11854.418884
field min 108.878
field max 108.878
attr interpolationmode  none
attr source  arrivalTime
attr title  "arrival time, histogram"
bin	-INF	0
bin	108.378	0
bin	108.41133333333	0
bin	108.44466666667	0
bin	108.478	0
bin	108.51133333333	0
bin	108.54466666667	0
bin	108.578	0
bin	108.61133333333	0
bin	108.64466666667	0
bin	108.678	0
bin	108.71133333333	0
bin	108.74466666667	0
bin	108.778	0
bin	108.81133333333	0
bin	108.84466666667	0
bin	108.878	1
bin	108.91133333333	0
bin	108.94466666667	0
bin	108.978	0
bin	109.01133333333	0
bin	109.04466666667	0
bin	109.078	0
bin	109.11133333333	0
bin	109.14466666667	0
bin	109.178	0
bin	109.21133333333	0
bin	109.24466666667	0
bin	109.278	0
bin	109.31133333333	0
bin	109.34466666667	0
bin	109.378	0
statistic RandomGeometricGraph.rgnv[66] 	arrivalPerc:histogram
field count 1
field mean 1
field stddev nan
field sum 1
field sqrsum 1
field min 1
field max 1
attr interpolationmode  none
attr source  count(arrival)
attr title  "arrival perc, histogram"
[...]
field count 1
field mean 180.033
field stddev nan
field sum 180.033
field sqrsum 32411.881089
field min 180.033
field max 180.033
attr interpolationmode  none
attr source  arrivalTime
attr title  "arrival time, histogram"
bin	-INF	0
bin	179.533	0
bin	179.56633333333	0
bin	179.59966666667	0
bin	179.633	0
bin	179.66633333333	0
bin	179.69966666667	0
bin	179.733	0
bin	179.76633333333	0
bin	179.79966666667	0
bin	179.833	0
bin	179.86633333333	0
bin	179.89966666667	0
bin	179.933	0
bin	179.96633333333	0
bin	179.99966666667	0
bin	180.033	1
bin	180.06633333333	0
bin	180.09966666667	0
bin	180.133	0
bin	180.16633333333	0
bin	180.19966666667	0
bin	180.233	0
bin	180.26633333333	0
bin	180.29966666667	0
bin	180.333	0
bin	180.36633333333	0
bin	180.39966666667	0
bin	180.433	0
bin	180.46633333333	0
bin	180.49966666667	0
bin	180.533	0
statistic RandomGeometricGraph.rgnv[183] 	arrivalPerc:histogram
field count 1
field mean 1
field stddev nan
field sum 1
field sqrsum 1
field min 1
field max 1
attr interpolationmode  none
attr source  count(arrival)
attr title  "arrival perc, histogram"
bin	-INF	0
bin	0	0
bin	1	1
bin	2	0
statistic RandomGeometricGraph.rgnv[184] 	arrivalTime:histogram
field count 1
field mean 162.802
field stddev nan
field sum 162.802
field sqrsum 26504.491204
field min 162.802
field max 162.802
attr interpolationmode  none
attr source  arrivalTime
attr title  "arrival time, histogram"
bin	-INF	0
bin	162.302	0
bin	162.33533333333	0
bin	162.36866666667	0
bin	162.402	0
bin	162.43533333333	0
bin	162.46866666667	0
bin	162.502	0
bin	162.53533333333	0
bin	162.56866666667	0
bin	162.602	0
bin	162.63533333333	0
bin	162.66866666667	0
bin	162.702	0
bin	162.73533333333	0
bin	162.76866666667	0
bin	162.802	1
bin	162.83533333333	0
bin	162.86866666667	0
bin	162.902	0
bin	162.93533333333	0
bin	162.96866666667	0
bin	163.002	0
bin	163.03533333333	0
bin	163.06866666667	0
bin	163.102	0
bin	163.13533333333	0
bin	163.16866666667	0
bin	163.202	0
bin	163.23533333333	0
bin	163.26866666667	0
bin	163.302	0
statistic RandomGeometricGraph.rgnv[184] 	arrivalPerc:histogram
field count 1
field mean 1
field stddev nan
field sum 1
field sqrsum 1
field min 1
field max 1
attr interpolationmode  none
attr source  count(arrival)
attr title  "arrival perc, histogram"
bin	-INF	0
bin	0	0
bin	1	1
bin	2	0
statistic RandomGeometricGraph.rgnv[185] 	arrivalTime:histogram
field count 1
field mean 170.043
field stddev nan
field sum 170.043
field sqrsum 28914.621849
field min 170.043
field max 170.043
attr interpolationmode  none
attr source  arrivalTime
attr title  "arrival time, histogram"
bin	-INF	0
bin	169.543	0
bin	169.57633333333	0
bin	169.60966666667	0
bin	169.643	0
bin	169.67633333333	0
bin	169.70966666667	0
bin	169.743	0
bin	169.77633333333	0
bin	169.80966666667	0
bin	169.843	0
bin	169.87633333333	0
bin	169.90966666667	0
bin	169.943	0
bin	169.97633333333	0
bin	170.00966666667	0
bin	170.043	1
bin	170.07633333333	0
bin	170.10966666667	0
bin	170.143	0
bin	170.17633333333	0
bin	170.20966666667	0
bin	170.243	0
bin	170.27633333333	0
bin	170.30966666667	0
bin	170.343	0
bin	170.37633333333	0
bin	170.40966666667	0
bin	170.443	0
bin	170.47633333333	0
bin	170.50966666667	0
bin	170.543	0
statistic RandomGeometricGraph.rgnv[185] 	arrivalPerc:histogram
field count 1
field mean 1
field stddev nan
field sum 1
field sqrsum 1
field min 1
field max 1
attr interpolationmode  none
attr source  count(arrival)
attr title  "arrival perc, histogram"
bin	-INF	0
bin	0	0
bin	1	1
bin	2	0
statistic RandomGeometricGraph.rgnv[186] 	arrivalTime:histogram
field count 1
field mean 194.485
field stddev nan
field sum 194.485
field sqrsum 37824.415225
field min 194.485
field max 194.485
attr interpolationmode  none
attr source  arrivalTime
attr title  "arrival time, histogram"
bin	-INF	0
bin	193.985	0
bin	194.01833333333	0
bin	194.05166666667	0
bin	194.085	0
bin	194.11833333333	0
bin	194.15166666667	0
bin	194.185	0
bin	194.21833333333	0
bin	194.25166666667	0
bin	194.285	0
bin	194.31833333333	0
bin	194.35166666667	0
bin	194.385	0
bin	194.41833333333	0
bin	194.45166666667	0
bin	194.485	1
bin	194.51833333333	0
bin	194.55166666667	0
bin	194.585	0
bin	194.61833333333	0
bin	194.65166666667	0
bin	194.685	0
bin	194.71833333333	0
bin	194.75166666667	0
bin	194.785	0
bin	194.81833333333	0
bin	194.85166666667	0
bin	194.885	0
bin	194.91833333333	0
bin	194.95166666667	0
bin	194.985	0
statistic RandomGeometricGraph.rgnv[186] 	arrivalPerc:histogram
field count 1
field mean 1
field stddev nan
field sum 1
field sqrsum 1
field min 1
field max 1
attr interpolationmode  none
attr source  count(arrival)
attr title  "arrival perc, histogram"
bin	-INF	0
bin	0	0
bin	1	1
bin	2	0
statistic RandomGeometricGraph.rgnv[187] 	arrivalTime:histogram
field count 1
field mean 140.561
field stddev nan
field sum 140.561
field sqrsum 19757.394721
field min 140.561
field max 140.561
attr interpolationmode  none
attr source  arrivalTime
attr title  "arrival time, histogram"
bin	-INF	0
bin	140.061	0
bin	140.09433333333	0
bin	140.12766666667	0
bin	140.161	0
bin	140.19433333333	0
bin	140.22766666667	0
bin	140.261	0
bin	140.29433333333	0
bin	140.32766666667	0
bin	140.361	0
bin	140.39433333333	0
bin	140.42766666667	0
bin	140.461	0
bin	140.49433333333	0
bin	140.52766666667	0
bin	140.561	1
bin	140.59433333333	0
bin	140.62766666667	0
bin	140.661	0
bin	140.69433333333	0
bin	140.72766666667	0
bin	140.761	0
bin	140.79433333333	0
bin	140.82766666667	0
bin	140.861	0
bin	140.89433333333	0
bin	140.92766666667	0
bin	140.961	0
bin	140.99433333333	0
bin	141.02766666667	0
bin	141.061	0
statistic RandomGeometricGraph.rgnv[187] 	arrivalPerc:histogram
field count 1
field mean 1
field stddev nan
field sum 1
field sqrsum 1
field min 1
field max 1
attr interpolationmode  none
attr source  count(arrival)
attr title  "arrival perc, histogram"
bin	-INF	0
bin	0	0
bin	1	1
bin	2	0
statistic RandomGeometricGraph.rgnv[188] 	arrivalTime:histogram
field count 1
field mean 170.033
field stddev nan
field sum 170.033
field sqrsum 28911.221089
field min 170.033
field max 170.033
attr interpolationmode  none
attr source  arrivalTime
attr title  "arrival time, histogram"
bin	-INF	0
bin	169.533	0
bin	169.56633333333	0
bin	169.59966666667	0
bin	169.633	0
bin	169.66633333333	0
bin	169.69966666667	0
bin	169.733	0
bin	169.76633333333	0
bin	169.79966666667	0
bin	169.833	0
bin	169.86633333333	0
bin	169.89966666667	0
bin	169.933	0
bin	169.96633333333	0
bin	169.99966666667	0
bin	170.033	1
bin	170.06633333333	0
bin	170.09966666667	0
bin	170.133	0
bin	170.16633333333	0
bin	170.19966666667	0
bin	170.233	0
bin	170.26633333333	0
bin	170.29966666667	0
bin	170.333	0
bin	170.36633333333	0
bin	170.39966666667	0
bin	170.433	0
bin	170.46633333333	0
bin	170.49966666667	0
bin	170.533	0
statistic RandomGeometricGraph.rgnv[188] 	arrivalPerc:histogram
field count 1
field mean 1
field stddev nan
field sum 1
field sqrsum 1
field min 1
field max 1
attr interpolationmode  none
attr source  count(arrival)
attr title  "arrival perc, histogram"
bin	-INF	0
bin	0	0
bin	1	1
bin	2	0
statistic RandomGeometricGraph.rgnv[189] 	arrivalTime:histogram
field count 1
field mean 182.284
field stddev nan
field sum 182.284
field sqrsum 33227.456656
field min 182.284
field max 182.284
attr interpolationmode  none
attr source  arrivalTime
attr title  "arrival time, histogram"
bin	-INF	0
bin	181.784	0
bin	181.81733333333	0
bin	181.85066666667	0
bin	181.884	0
bin	181.91733333333	0
bin	181.95066666667	0
bin	181.984	0
bin	182.01733333333	0
bin	182.05066666667	0
bin	182.084	0
bin	182.11733333333	0
bin	182.15066666667	0
bin	182.184	0
bin	182.21733333333	0
bin	182.25066666667	0
bin	182.284	1
bin	182.31733333333	0
bin	182.35066666667	0
bin	182.384	0
bin	182.41733333333	0
bin	182.45066666667	0
bin	182.484	0
bin	182.51733333333	0
bin	182.55066666667	0
bin	182.584	0
bin	182.61733333333	0
bin	182.65066666667	0
bin	182.684	0
bin	182.71733333333	0
bin	182.75066666667	0
bin	182.784	0
statistic RandomGeometricGraph.rgnv[189] 	arrivalPerc:histogram
field count 1
field mean 1
field stddev nan
field sum 1
field sqrsum 1
field min 1
field max 1
attr interpolationmode  none
attr source  count(arrival)
attr title  "arrival perc, histogram"
bin	-INF	0
bin	0	0
bin	1	1
bin	2	0
statistic RandomGeometricGraph.rgnv[190] 	arrivalTime:histogram
field count 1
field mean 62.155
field stddev nan
field sum 62.155
field sqrsum 3863.244025
field min 62.155
field max 62.155
attr interpolationmode  none
attr source  arrivalTime
attr title  "arrival time, histogram"
bin	-INF	0
bin	61.655	0
bin	61.688333333333	0
bin	61.721666666667	0
bin	61.755	0
bin	61.788333333333	0
bin	61.821666666667	0
bin	61.855	0
bin	61.888333333333	0
bin	61.921666666667	0
bin	61.955	0
bin	61.988333333333	0
bin	62.021666666667	0
bin	62.055	0
bin	62.088333333333	0
bin	62.121666666667	0
bin	62.155	1
bin	62.188333333333	0
bin	62.221666666667	0
bin	62.255	0
bin	62.288333333333	0
bin	62.321666666667	0
bin	62.355	0
bin	62.388333333333	0
bin	62.421666666667	0
bin	62.455	0
bin	62.488333333333	0
bin	62.521666666667	0
bin	62.555	0
bin	62.588333333333	0
bin	62.621666666667	0
bin	62.655	0
statistic RandomGeometricGraph.rgnv[190] 	arrivalPerc:histogram
field count 1
field mean 1
field stddev nan
field sum 1
field sqrsum 1
field min 1
field max 1
attr interpolationmode  none
attr source  count(arrival)
attr title  "arrival perc, histogram"
bin	-INF	0
bin	0	0
bin	1	1
bin	2	0
statistic RandomGeometricGraph.rgnv[191] 	arrivalTime:histogram
field count 1
field mean 103.868
field stddev nan
field sum 103.868
field sqrsum 10788.561424
field min 103.868
field max 103.868
attr interpolationmode  none
attr source  arrivalTime
attr title  "arrival time, histogram"
bin	-INF	0
bin	103.368	0
bin	103.40133333333	0
bin	103.43466666667	0
bin	103.468	0
bin	103.50133333333	0
bin	103.53466666667	0
bin	103.568	0
bin	103.60133333333	0
bin	103.63466666667	0
bin	103.668	0
bin	103.70133333333	0
bin	103.73466666667	0
bin	103.768	0
bin	103.80133333333	0
bin	103.83466666667	0
bin	103.868	1
bin	103.90133333333	0
bin	103.93466666667	0
bin	103.968	0
bin	104.00133333333	0
bin	104.03466666667	0
bin	104.068	0
bin	104.10133333333	0
bin	104.13466666667	0
bin	104.168	0
bin	104.20133333333	0
bin	104.23466666667	0
bin	104.268	0
bin	104.30133333333	0
bin	104.33466666667	0
bin	104.368	0
statistic RandomGeometricGraph.rgnv[191] 	arrivalPerc:histogram
field count 1
field mean 1
field stddev nan
field sum 1
field sqrsum 1
field min 1
field max 1
attr interpolationmode  none
attr source  count(arrival)
attr title  "arrival perc, histogram"
bin	-INF	0
bin	0	0
bin	1	1
bin	2	0
statistic RandomGeometricGraph.rgnv[192] 	arrivalTime:histogram
field count 1
field mean 165.023
field stddev nan
field sum 165.023
field sqrsum 27232.590529
field min 165.023
field max 165.023
attr interpolationmode  none
attr source  arrivalTime
attr title  "arrival time, histogram"
bin	-INF	0
bin	164.523	0
bin	164.55633333333	0
bin	164.58966666667	0
bin	164.623	0
bin	164.65633333333	0
bin	164.68966666667	0
bin	164.723	0
bin	164.75633333333	0
bin	164.78966666667	0
bin	164.823	0
bin	164.85633333333	0
bin	164.88966666667	0
bin	164.923	0
bin	164.95633333333	0
bin	164.98966666667	0
bin	165.023	1
bin	165.05633333333	0
bin	165.08966666667	0
bin	165.123	0
bin	165.15633333333	0
bin	165.18966666667	0
bin	165.223	0
bin	165.25633333333	0
bin	165.28966666667	0
bin	165.323	0
bin	165.35633333333	0
bin	165.38966666667	0
bin	165.423	0
bin	165.45633333333	0
bin	165.48966666667	0
bin	165.523	0
statistic RandomGeometricGraph.rgnv[192] 	arrivalPerc:histogram
field count 1
field mean 1
field stddev nan
field sum 1
field sqrsum 1
field min 1
field max 1
attr interpolationmode  none
attr source  count(arrival)
attr title  "arrival perc, histogram"
bin	-INF	0
bin	0	0
bin	1	1
bin	2	0
statistic RandomGeometricGraph.rgnv[193] 	arrivalTime:histogram
field count 1
field mean 170.033
field stddev nan
field sum 170.033
field sqrsum 28911.221089
field min 170.033
field max 170.033
attr interpolationmode  none
attr source  arrivalTime
attr title  "arrival time, histogram"
bin	-INF	0
bin	169.533	0
bin	169.56633333333	0
bin	169.59966666667	0
bin	169.633	0
bin	169.66633333333	0
bin	169.69966666667	0
bin	169.733	0
bin	169.76633333333	0
bin	169.79966666667	0
bin	169.833	0
bin	169.86633333333	0
bin	169.89966666667	0
bin	169.933	0
bin	169.96633333333	0
bin	169.99966666667	0
bin	170.033	1
bin	170.06633333333	0
bin	170.09966666667	0
bin	170.133	0
bin	170.16633333333	0
bin	170.19966666667	0
bin	170.233	0
bin	170.26633333333	0
bin	170.29966666667	0
bin	170.333	0
bin	170.36633333333	0
bin	170.39966666667	0
bin	170.433	0
bin	170.46633333333	0
bin	170.49966666667	0
bin	170.533	0
statistic RandomGeometricGraph.rgnv[193] 	arrivalPerc:histogram
field count 1
field mean 1
field stddev nan
field sum 1
field sqrsum 1
field min 1
field max 1
attr interpolationmode  none
attr source  count(arrival)
attr title  "arrival perc, histogram"
bin	-INF	0
bin	0	0
bin	1	1
bin	2	0
statistic RandomGeometricGraph.rgnv[194] 	arrivalTime:histogram
field count 1
field mean 103.868
field stddev nan
field sum 103.868
field sqrsum 10788.561424
field min 103.868
field max 103.868
attr interpolationmode  none
attr source  arrivalTime
attr title  "arrival time, histogram"
bin	-INF	0
bin	103.368	0
bin	103.40133333333	0
bin	103.43466666667	0
bin	103.468	0
bin	103.50133333333	0
bin	103.53466666667	0
bin	103.568	0
bin	103.60133333333	0
bin	103.63466666667	0
bin	103.668	0
bin	103.70133333333	0
bin	103.73466666667	0
bin	103.768	0
bin	103.80133333333	0
bin	103.83466666667	0
bin	103.868	1
bin	103.90133333333	0
bin	103.93466666667	0
bin	103.968	0
bin	104.00133333333	0
bin	104.03466666667	0
bin	104.068	0
bin	104.10133333333	0
bin	104.13466666667	0
bin	104.168	0
bin	104.20133333333	0
bin	104.23466666667	0
bin	104.268	0
bin	104.30133333333	0
bin	104.33466666667	0
bin	104.368	0
statistic RandomGeometricGraph.rgnv[194] 	arrivalPerc:histogram
field count 1
field mean 1
field stddev nan
field sum 1
field sqrsum 1
field min 1
field max 1
attr interpolationmode  none
attr source  count(arrival)
attr title  "arrival perc, histogram"
bin	-INF	0
bin	0	0
bin	1	1
bin	2	0
statistic RandomGeometricGraph.rgnv[195] 	arrivalTime:histogram
field count 1
field mean 108.868
field stddev nan
field sum 108.868
field sqrsum 11852.241424
field min 108.868
field max 108.868
attr interpolationmode  none
attr source  arrivalTime
attr title  "arrival time, histogram"
bin	-INF	0
bin	108.368	0
bin	108.40133333333	0
bin	108.43466666667	0
bin	108.468	0
bin	108.50133333333	0
bin	108.53466666667	0
bin	108.568	0
bin	108.60133333333	0
bin	108.63466666667	0
bin	108.668	0
bin	108.70133333333	0
bin	108.73466666667	0
bin	108.768	0
bin	108.80133333333	0
bin	108.83466666667	0
bin	108.868	1
bin	108.90133333333	0
bin	108.93466666667	0
bin	108.968	0
bin	109.00133333333	0
bin	109.03466666667	0
bin	109.068	0
bin	109.10133333333	0
bin	109.13466666667	0
bin	109.168	0
bin	109.20133333333	0
bin	109.23466666667	0
bin	109.268	0
bin	109.30133333333	0
bin	109.33466666667	0
bin	109.368	0
statistic RandomGeometricGraph.rgnv[195] 	arrivalPerc:histogram
field count 1
field mean 1
field stddev nan
field sum 1
field sqrsum 1
field min 1
field max 1
attr interpolationmode  none
attr source  count(arrival)
attr title  "arrival perc, histogram"
bin	-INF	0
bin	0	0
bin	1	1
bin	2	0
statistic RandomGeometricGraph.rgnv[196] 	arrivalTime:histogram
field count 1
field mean 199.495
field stddev nan
field sum 199.495
field sqrsum 39798.255025
field min 199.495
field max 199.495
attr interpolationmode  none
attr source  arrivalTime
attr title  "arrival time, histogram"
bin	-INF	0
bin	198.995	0
bin	199.02833333333	0
bin	199.06166666667	0
bin	199.095	0
bin	199.12833333333	0
bin	199.16166666667	0
bin	199.195	0
bin	199.22833333333	0
bin	199.26166666667	0
bin	199.295	0
bin	199.32833333333	0
bin	199.36166666667	0
bin	199.395	0
bin	199.42833333333	0
bin	199.46166666667	0
bin	199.495	1
bin	199.52833333333	0
bin	199.56166666667	0
bin	199.595	0
bin	199.62833333333	0
bin	199.66166666667	0
bin	199.695	0
bin	199.72833333333	0
bin	199.76166666667	0
bin	199.795	0
bin	199.82833333333	0
bin	199.86166666667	0
bin	199.895	0
bin	199.92833333333	0
bin	199.96166666667	0
bin	199.995	0
statistic RandomGeometricGraph.rgnv[196] 	arrivalPerc:histogram
field count 1
field mean 1
field stddev nan
field sum 1
field sqrsum 1
field min 1
field max 1
attr interpolationmode  none
attr source  count(arrival)
attr title  "arrival perc, histogram"
bin	-INF	0
bin	0	0
bin	1	1
bin	2	0
statistic RandomGeometricGraph.rgnv[197] 	arrivalTime:histogram
field count 1
field mean 189.485
field stddev nan
field sum 189.485
field sqrsum 35904.565225
field min 189.485
field max 189.485
attr interpolationmode  none
attr source  arrivalTime
attr title  "arrival time, histogram"
bin	-INF	0
bin	188.985	0
bin	189.01833333333	0
bin	189.05166666667	0
bin	189.085	0
bin	189.11833333333	0
bin	189.15166666667	0
bin	189.185	0
bin	189.21833333333	0
bin	189.25166666667	0
bin	189.285	0
bin	189.31833333333	0
bin	189.35166666667	0
bin	189.385	0
bin	189.41833333333	0
bin	189.45166666667	0
bin	189.485	1
bin	189.51833333333	0
bin	189.55166666667	0
bin	189.585	0
bin	189.61833333333	0
bin	189.65166666667	0
bin	189.685	0
bin	189.71833333333	0
bin	189.75166666667	0
bin	189.785	0
bin	189.81833333333	0
bin	189.85166666667	0
bin	189.885	0
bin	189.91833333333	0
bin	189.95166666667	0
bin	189.985	0
statistic RandomGeometricGraph.rgnv[197] 	arrivalPerc:histogram
field count 1
field mean 1
field stddev nan
field sum 1
field sqrsum 1
field min 1
field max 1
attr interpolationmode  none
attr source  count(arrival)
attr title  "arrival perc, histogram"
bin	-INF	0
bin	0	0
bin	1	1
bin	2	0
statistic RandomGeometricGraph.rgnv[198] 	arrivalTime:histogram
field count 1
field mean 150.581
field stddev nan
field sum 150.581
field sqrsum 22674.637561
field min 150.581
field max 150.581
attr interpolationmode  none
attr source  arrivalTime
attr title  "arrival time, histogram"
bin	-INF	0
bin	150.081	0
bin	150.11433333333	0
bin	150.14766666667	0
bin	150.181	0
bin	150.21433333333	0
bin	150.24766666667	0
bin	150.281	0
bin	150.31433333333	0
bin	150.34766666667	0
bin	150.381	0
bin	150.41433333333	0
bin	150.44766666667	0
bin	150.481	0
bin	150.51433333333	0
bin	150.54766666667	0
bin	150.581	1
bin	150.61433333333	0
bin	150.64766666667	0
bin	150.681	0
bin	150.71433333333	0
bin	150.74766666667	0
bin	150.781	0
bin	150.81433333333	0
bin	150.84766666667	0
bin	150.881	0
bin	150.91433333333	0
bin	150.94766666667	0
bin	150.981	0
bin	151.01433333333	0
bin	151.04766666667	0
bin	151.081	0
statistic RandomGeometricGraph.rgnv[198] 	arrivalPerc:histogram
field count 1
field mean 1
field stddev nan
field sum 1
field sqrsum 1
field min 1
field max 1
attr interpolationmode  none
attr source  count(arrival)
attr title  "arrival perc, histogram"
bin	-INF	0
bin	0	0
bin	1	1
bin	2	0
statistic RandomGeometricGraph.rgnv[199] 	arrivalTime:histogram
field count 1
field mean 123.32
field stddev nan
field sum 123.32
field sqrsum 15207.8224
field min 123.32
field max 123.32
attr interpolationmode  none
attr source  arrivalTime
attr title  "arrival time, histogram"
bin	-INF	0
bin	122.82	0
bin	122.85333333333	0
bin	122.88666666667	0
bin	122.92	0
bin	122.95333333333	0
bin	122.98666666667	0
bin	123.02	0
bin	123.05333333333	0
bin	123.08666666667	0
bin	123.12	0
bin	123.15333333333	0
bin	123.18666666667	0
bin	123.22	0
bin	123.25333333333	0
bin	123.28666666667	0
bin	123.32	1
bin	123.35333333333	0
bin	123.38666666667	0
bin	123.42	0
bin	123.45333333333	0
bin	123.48666666667	0
bin	123.52	0
bin	123.55333333333	0
bin	123.58666666667	0
bin	123.62	0
bin	123.65333333333	0
bin	123.68666666667	0
bin	123.72	0
bin	123.75333333333	0
bin	123.78666666667	0
bin	123.82	0
statistic RandomGeometricGraph.rgnv[199] 	arrivalPerc:histogram
field count 1
field mean 1
field stddev nan
field sum 1
field sqrsum 1
field min 1
field max 1
attr interpolationmode  none
attr source  count(arrival)
attr title  "arrival perc, histogram"
bin	-INF	0
bin	0	0
bin	1	1
bin	2	0
