version 2
run rgg200-3-20170110-15:42:18-11672
attr configname rgg200
attr datetime 20170110-15:42:18
attr experiment rgg200
attr inifile iniFile/D002/omnetpp_15D002.ini
attr iterationvars ""
attr iterationvars2 $repetition=3
attr measurement ""
attr network blegossipprj.net.randomgeometricgraph.RandomGeometricGraph
attr processid 11672
attr repetition 3
attr replication #3
attr resultdir ../../results/D002/r15D002
attr runnumber 3
attr seedset 3
param RandomGeometricGraph.netSize 200
param RandomGeometricGraph.radius 15
param RandomGeometricGraph.rgnv[*].areaLength 100
param RandomGeometricGraph.rgnv[*].areaWidth 100

statistic RandomGeometricGraph.sc 	arrivalPercentage
field count 200
field mean 1
field stddev 0
field sum 200
field sqrsum 200
field min 1
field max 1
attr type  int
bin	-INF	0
bin	0	0
bin	1	200
bin	2	0
statistic RandomGeometricGraph.sc 	arrivalTime
field count 200
field mean 98.621615
field stddev 27.626881820472
field sum 19724.323
field sqrsum 2097130.264267
field min 0
field max 157.802
bin	-INF	0
bin	-50.8235	0
bin	-44.047033333333	0
bin	-37.270566666667	0
bin	-30.4941	0
bin	-23.717633333333	0
bin	-16.941166666667	0
bin	-10.1647	0
bin	-3.3882333333333	1
bin	3.3882333333333	0
bin	10.1647	1
bin	16.941166666667	0
bin	23.717633333333	2
bin	30.4941	0
bin	37.270566666667	4
bin	44.047033333333	5
bin	50.8235	3
bin	57.599966666667	7
bin	64.376433333333	7
bin	71.1529	8
bin	77.929366666667	17
bin	84.705833333333	11
bin	91.4823	22
bin	98.258766666667	28
bin	105.03523333333	21
bin	111.8117	18
bin	118.58816666667	16
bin	125.36463333333	9
bin	132.1411	8
bin	138.91756666667	7
bin	145.69403333333	2
bin	152.4705	3
statistic RandomGeometricGraph.rgnv[0] 	arrivalTime:histogram
field count 1
field mean 116.099
field stddev nan
field sum 116.099
field sqrsum 13478.977801
field min 116.099
field max 116.099
attr interpolationmode  none
attr source  arrivalTime
attr title  "arrival time, histogram"
bin	-INF	0
bin	115.599	0
bin	115.63233333333	0
bin	115.66566666667	0
bin	115.699	0
bin	115.73233333333	0
bin	115.76566666667	0
bin	115.799	0
bin	115.83233333333	0
bin	115.86566666667	0
bin	115.899	0
bin	115.93233333333	0
bin	115.96566666667	0
bin	115.999	0
bin	116.03233333333	0
bin	116.06566666667	0
bin	116.099	1
bin	116.13233333333	0
bin	116.16566666667	0
bin	116.199	0
bin	116.23233333333	0
bin	116.26566666667	0
bin	116.299	0
bin	116.33233333333	0
bin	116.36566666667	0
bin	116.399	0
bin	116.43233333333	0
bin	116.46566666667	0
bin	116.499	0
bin	116.53233333333	0
bin	116.56566666667	0
bin	116.599	0
statistic RandomGeometricGraph.rgnv[0] 	arrivalPerc:histogram
field count 1
field mean 1
field stddev nan
field sum 1
field sqrsum 1
field min 1
field max 1
attr interpolationmode  none
attr source  count(arrival)
attr title  "arrival perc, histogram"
bin	-INF	0
bin	0	0
bin	1	1
bin	2	0
statistic RandomGeometricGraph.rgnv[1] 	arrivalTime:histogram
field count 1
field mean 113.878
field stddev nan
field sum 113.878
field sqrsum 12968.198884
field min 113.878
field max 113.878
attr interpolationmode  none
attr source  arrivalTime
attr title  "arrival time, histogram"
bin	-INF	0
bin	113.378	0
bin	113.41133333333	0
bin	113.44466666667	0
bin	113.478	0
bin	113.51133333333	0
bin	113.54466666667	0
bin	113.578	0
bin	113.61133333333	0
bin	113.64466666667	0
bin	113.678	0
bin	113.71133333333	0
bin	113.74466666667	0
bin	113.778	0
bin	113.81133333333	0
bin	113.84466666667	0
bin	113.878	1
bin	113.91133333333	0
bin	113.94466666667	0
bin	113.978	0
bin	114.01133333333	0
bin	114.04466666667	0
bin	114.078	0
bin	114.11133333333	0
bin	114.14466666667	0
bin	114.178	0
bin	114.21133333333	0
bin	114.24466666667	0
bin	114.278	0
bin	114.31133333333	0
bin	114.34466666667	0
bin	114.378	0
statistic RandomGeometricGraph.rgnv[1] 	arrivalPerc:histogram
field count 1
field mean 1
field stddev nan
field sum 1
field sqrsum 1
field min 1
field max 1
attr interpolationmode  none
attr source  count(arrival)
attr title  "arrival perc, histogram"
bin	-INF	0
bin	0	0
bin	1	1
bin	2	0
statistic RandomGeometricGraph.rgnv[2] 	arrivalTime:histogram
field count 1
field mean 86.627
field stddev nan
field sum 86.627
field sqrsum 7504.237129
field min 86.627
field max 86.627
attr interpolationmode  none
attr source  arrivalTime
attr title  "arrival time, histogram"
bin	-INF	0
bin	86.127	0
bin	86.160333333333	0
bin	86.193666666667	0
bin	86.227	0
bin	86.260333333333	0
bin	86.293666666667	0
bin	86.327	0
bin	86.360333333333	0
bin	86.393666666667	0
bin	86.427	0
bin	86.460333333333	0
bin	86.493666666667	0
bin	86.527	0
bin	86.560333333333	0
bin	86.593666666667	0
bin	86.627	1
bin	86.660333333333	0
bin	86.693666666667	0
bin	86.727	0
bin	86.760333333333	0
bin	86.793666666667	0
bin	86.827	0
bin	86.860333333333	0
bin	86.893666666667	0
bin	86.927	0
bin	86.960333333333	0
bin	86.993666666667	0
bin	87.027	0
bin	87.060333333333	0
bin	87.093666666667	0
bin	87.127	0
statistic RandomGeometricGraph.rgnv[2] 	arrivalPerc:histogram
field count 1
field mean 1
field stddev nan
field sum 1
field sqrsum 1
field min 1
field max 1
attr interpolationmode  none
attr source  count(arrival)
attr title  "arrival perc, histogram"
bin	-INF	0
bin	0	0
bin	1	1
bin	2	0
statistic RandomGeometricGraph.rgnv[3] 	arrivalTime:histogram
field count 1
field mean 123.32
field stddev nan
field sum 123.32
field sqrsum 15207.8224
field min 123.32
field max 123.32
attr interpolationmode  none
attr source  arrivalTime
attr title  "arrival time, histogram"
bin	-INF	0
bin	122.82	0
bin	122.85333333333	0
bin	122.88666666667	0
bin	122.92	0
bin	122.95333333333	0
bin	122.98666666667	0
bin	123.02	0
bin	123.05333333333	0
bin	123.08666666667	0
bin	123.12	0
bin	123.15333333333	0
bin	123.18666666667	0
bin	123.22	0
bin	123.25333333333	0
bin	123.28666666667	0
bin	123.32	1
bin	123.35333333333	0
bin	123.38666666667	0
bin	123.42	0
bin	123.45333333333	0
bin	123.48666666667	0
bin	123.52	0
bin	123.55333333333	0
bin	123.58666666667	0
bin	123.62	0
bin	123.65333333333	0
bin	123.68666666667	0
bin	123.72	0
bin	123.75333333333	0
bin	123.78666666667	0
bin	123.82	0
statistic RandomGeometricGraph.rgnv[3] 	arrivalPerc:histogram
field count 1
field mean 1
field stddev nan
field sum 1
field sqrsum 1
field min 1
field max 1
attr interpolationmode  none
attr source  count(arrival)
attr title  "arrival perc, histogram"
bin	-INF	0
bin	0	0
bin	1	1
bin	2	0
statistic RandomGeometricGraph.rgnv[4] 	arrivalTime:histogram
field count 1
field mean 121.109
field stddev nan
field sum 121.109
field sqrsum 14667.389881
field min 121.109
field max 121.109
attr interpolationmode  none
attr source  arrivalTime
attr title  "arrival time, histogram"
bin	-INF	0
bin	120.609	0
bin	120.64233333333	0
bin	120.67566666667	0
bin	120.709	0
bin	120.74233333333	0
bin	120.77566666667	0
bin	120.809	0
bin	120.84233333333	0
bin	120.87566666667	0
bin	120.909	0
bin	120.94233333333	0
bin	120.97566666667	0
bin	121.009	0
bin	121.04233333333	0
bin	121.07566666667	0
bin	121.109	1
bin	121.14233333333	0
bin	121.17566666667	0
bin	121.209	0
bin	121.24233333333	0
bin	121.27566666667	0
bin	121.309	0
bin	121.34233333333	0
bin	121.37566666667	0
bin	121.409	0
bin	121.44233333333	0
bin	121.47566666667	0
bin	121.509	0
bin	121.54233333333	0
bin	121.57566666667	0
bin	121.609	0
statistic RandomGeometricGraph.rgnv[4] 	arrivalPerc:histogram
field count 1
field mean 1
field stddev nan
field sum 1
field sqrsum 1
field min 1
field max 1
attr interpolationmode  none
attr source  count(arrival)
attr title  "arrival perc, histogram"
bin	-INF	0
bin	0	0
bin	1	1
bin	2	0
statistic RandomGeometricGraph.rgnv[5] 	arrivalTime:histogram
field count 1
field mean 138.35
field stddev nan
field sum 138.35
field sqrsum 19140.7225
field min 138.35
field max 138.35
attr interpolationmode  none
attr source  arrivalTime
attr title  "arrival time, histogram"
bin	-INF	0
bin	137.85	0
bin	137.88333333333	0
bin	137.91666666667	0
bin	137.95	0
bin	137.98333333333	0
bin	138.01666666667	0
bin	138.05	0
bin	138.08333333333	0
bin	138.11666666667	0
bin	138.15	0
bin	138.18333333333	0
bin	138.21666666667	0
bin	138.25	0
bin	138.28333333333	0
bin	138.31666666667	0
bin	138.35	1
bin	138.38333333333	0
bin	138.41666666667	0
bin	138.45	0
bin	138.48333333333	0
bin	138.51666666667	0
bin	138.55	0
bin	138.58333333333	0
bin	138.61666666667	0
bin	138.65	0
bin	138.68333333333	0
bin	138.71666666667	0
bin	138.75	0
bin	138.78333333333	0
bin	138.81666666667	0
bin	138.85	0
statistic RandomGeometricGraph.rgnv[5] 	arrivalPerc:histogram
field count 1
field mean 1
field stddev nan
field sum 1
field sqrsum 1
field min 1
field max 1
attr interpolationmode  none
attr source  count(arrival)
attr title  "arrival perc, histogram"
bin	-INF	0
bin	0	0
bin	1	1
bin	2	0
statistic RandomGeometricGraph.rgnv[6] 	arrivalTime:histogram
field count 1
field mean 121.119
field stddev nan
field sum 121.119
field sqrsum 14669.812161
field min 121.119
field max 121.119
attr interpolationmode  none
attr source  arrivalTime
attr title  "arrival time, histogram"
bin	-INF	0
bin	120.619	0
bin	120.65233333333	0
bin	120.68566666667	0
bin	120.719	0
bin	120.75233333333	0
bin	120.78566666667	0
bin	120.819	0
bin	120.85233333333	0
bin	120.88566666667	0
bin	120.919	0
bin	120.95233333333	0
bin	120.98566666667	0
bin	121.019	0
bin	121.05233333333	0
bin	121.08566666667	0
bin	121.119	1
bin	121.15233333333	0
bin	121.18566666667	0
bin	121.219	0
bin	121.25233333333	0
bin	121.28566666667	0
bin	121.319	0
bin	121.35233333333	0
bin	121.38566666667	0
bin	121.419	0
bin	121.45233333333	0
bin	121.48566666667	0
bin	121.519	0
bin	121.55233333333	0
bin	121.58566666667	0
bin	121.619	0
statistic RandomGeometricGraph.rgnv[6] 	arrivalPerc:histogram
field count 1
field mean 1
field stddev nan
field sum 1
field sqrsum 1
field min 1
field max 1
attr interpolationmode  none
attr source  count(arrival)
attr title  "arrival perc, histogram"
bin	-INF	0
bin	0	0
bin	1	1
bin	2	0
statistic RandomGeometricGraph.rgnv[7] 	arrivalTime:histogram
field count 1
field mean 111.099
field stddev nan
field sum 111.099
field sqrsum 12342.987801
field min 111.099
field max 111.099
attr interpolationmode  none
attr source  arrivalTime
attr title  "arrival time, histogram"
bin	-INF	0
bin	110.599	0
bin	110.63233333333	0
bin	110.66566666667	0
bin	110.699	0
bin	110.73233333333	0
bin	110.76566666667	0
bin	110.799	0
bin	110.83233333333	0
bin	110.86566666667	0
bin	110.899	0
bin	110.93233333333	0
bin	110.96566666667	0
bin	110.999	0
bin	111.03233333333	0
bin	111.06566666667	0
bin	111.099	1
bin	111.13233333333	0
bin	111.16566666667	0
bin	111.199	0
bin	111.23233333333	0
bin	111.26566666667	0
bin	111.299	0
bin	111.33233333333	0
bin	111.36566666667	0
bin	111.399	0
bin	111.43233333333	0
bin	111.46566666667	0
bin	111.499	0
bin	111.53233333333	0
bin	111.56566666667	0
bin	111.599	0
statistic RandomGeometricGraph.rgnv[7] 	arrivalPerc:histogram
field count 1
field mean 1
field stddev nan
field sum 1
field sqrsum 1
field min 1
field max 1
attr interpolationmode  none
attr source  count(arrival)
attr title  "arrival perc, histogram"
bin	-INF	0
bin	0	0
bin	1	1
bin	2	0
statistic RandomGeometricGraph.rgnv[8] 	arrivalTime:histogram
field count 1
field mean 96.657
field stddev nan
field sum 96.657
field sqrsum 9342.575649
field min 96.657
field max 96.657
attr interpolationmode  none
attr source  arrivalTime
attr title  "arrival time, histogram"
bin	-INF	0
bin	96.157	0
bin	96.190333333333	0
bin	96.223666666667	0
bin	96.257	0
bin	96.290333333333	0
bin	96.323666666667	0
bin	96.357	0
bin	96.390333333333	0
bin	96.423666666667	0
bin	96.457	0
bin	96.490333333333	0
bin	96.523666666667	0
bin	96.557	0
bin	96.590333333333	0
bin	96.623666666667	0
bin	96.657	1
bin	96.690333333333	0
bin	96.723666666667	0
bin	96.757	0
bin	96.790333333333	0
bin	96.823666666667	0
bin	96.857	0
bin	96.890333333333	0
bin	96.923666666667	0
bin	96.957	0
bin	96.990333333333	0
bin	97.023666666667	0
bin	97.057	0
bin	97.090333333333	0
bin	97.123666666667	0
bin	97.157	0
statistic RandomGeometricGraph.rgnv[8] 	arrivalPerc:histogram
field count 1
field mean 1
field stddev nan
field sum 1
field sqrsum 1
field min 1
field max 1
attr interpolationmode  none
attr source  count(arrival)
attr title  "arrival perc, histogram"
bin	-INF	0
bin	0	0
bin	1	1
bin	2	0
statistic RandomGeometricGraph.rgnv[9] 	arrivalTime:histogram
field count 1
field mean 108.878
field stddev nan
field sum 108.878
field sqrsum 11854.418884
field min 108.878
field max 108.878
attr interpolationmode  none
attr source  arrivalTime
attr title  "arrival time, histogram"
bin	-INF	0
bin	108.378	0
bin	108.41133333333	0
bin	108.44466666667	0
bin	108.478	0
bin	108.51133333333	0
bin	108.54466666667	0
bin	108.578	0
bin	108.61133333333	0
bin	108.64466666667	0
bin	108.678	0
bin	108.71133333333	0
bin	108.74466666667	0
bin	108.778	0
bin	108.81133333333	0
bin	108.84466666667	0
bin	108.878	1
bin	108.91133333333	0
bin	108.94466666667	0
bin	108.978	0
bin	109.01133333333	0
bin	109.04466666667	0
bin	109.078	0
bin	109.11133333333	0
bin	109.14466666667	0
bin	109.178	0
bin	109.21133333333	0
bin	109.24466666667	0
bin	109.278	0
bin	109.31133333333	0
bin	109.34466666667	0
bin	109.378	0
statistic RandomGeometricGraph.rgnv[9] 	arrivalPerc:histogram
field count 1
field mean 1
field stddev nan
field sum 1
field sqrsum 1
field min 1
field max 1
attr interpolationmode  none
attr source  count(arrival)
attr title  "arrival perc, histogram"
bin	-INF	0
bin	0	0
bin	1	1
bin	2	0
statistic RandomGeometricGraph.rgnv[10] 	arrivalTime:histogram
field count 1
field mean 103.868
field stddev nan
field sum 103.868
field sqrsum 10788.561424
field min 103.868
field max 103.868
attr interpolationmode  none
attr source  arrivalTime
attr title  "arrival time, histogram"
bin	-INF	0
bin	103.368	0
bin	103.40133333333	0
bin	103.43466666667	0
bin	103.468	0
bin	103.50133333333	0
bin	103.53466666667	0
bin	103.568	0
bin	103.60133333333	0
bin	103.63466666667	0
bin	103.668	0
bin	103.70133333333	0
bin	103.73466666667	0
bin	103.768	0
bin	103.80133333333	0
bin	103.83466666667	0
bin	103.868	1
bin	103.90133333333	0
bin	103.93466666667	0
bin	103.968	0
bin	104.00133333333	0
bin	104.03466666667	0
bin	104.068	0
bin	104.10133333333	0
bin	104.13466666667	0
bin	104.168	0
bin	104.20133333333	0
bin	104.23466666667	0
bin	104.268	0
bin	104.30133333333	0
bin	104.33466666667	0
bin	104.368	0
statistic RandomGeometricGraph.rgnv[10] 	arrivalPerc:histogram
field count 1
field mean 1
field stddev nan
field sum 1
field sqrsum 1
field min 1
field max 1
attr interpolationmode  none
attr source  count(arrival)
attr title  "arrival perc, histogram"
bin	-INF	0
bin	0	0
bin	1	1
bin	2	0
statistic RandomGeometricGraph.rgnv[11] 	arrivalTime:histogram
field count 1
field mean 84.416
field stddev nan
field sum 84.416
field sqrsum 7126.061056
field min 84.416
field max 84.416
attr interpolationmode  none
attr source  arrivalTime
attr title  "arrival time, histogram"
bin	-INF	0
bin	83.916	0
bin	83.949333333333	0
bin	83.982666666667	0
bin	84.016	0
bin	84.049333333333	0
bin	84.082666666667	0
bin	84.116	0
bin	84.149333333333	0
bin	84.182666666667	0
bin	84.216	0
bin	84.249333333333	0
bin	84.282666666667	0
bin	84.316	0
bin	84.349333333333	0
bin	84.382666666667	0
bin	84.416	1
bin	84.449333333333	0
bin	84.482666666667	0
bin	84.516	0
bin	84.549333333333	0
bin	84.582666666667	0
bin	84.616	0
bin	84.649333333333	0
bin	84.682666666667	0
bin	84.716	0
bin	84.749333333333	0
bin	84.782666666667	0
bin	84.816	0
bin	84.849333333333	0
bin	84.882666666667	0
bin	84.916	0
statistic RandomGeometricGraph.rgnv[11] 	arrivalPerc:histogram
field count 1
field mean 1
field stddev nan
field sum 1
field sqrsum 1
field min 1
field max 1
attr interpolationmode  none
attr source  count(arrival)
attr title  "arrival perc, histogram"
bin	-INF	0
bin	0	0
bin	1	1
bin	2	0
statistic RandomGeometricGraph.rgnv[12] 	arrivalTime:histogram
field count 1
field mean 79.416
field stddev nan
field sum 79.416
field sqrsum 6306.901056
field min 79.416
field max 79.416
attr interpolationmode  none
attr source  arrivalTime
attr title  "arrival time, histogram"
bin	-INF	0
bin	78.916	0
bin	78.949333333333	0
bin	78.982666666667	0
bin	79.016	0
bin	79.049333333333	0
bin	79.082666666667	0
bin	79.116	0
bin	79.149333333333	0
bin	79.182666666667	0
bin	79.216	0
bin	79.249333333333	0
bin	79.282666666667	0
bin	79.316	0
bin	79.349333333333	0
bin	79.382666666667	0
bin	79.416	1
bin	79.449333333333	0
bin	79.482666666667	0
bin	79.516	0
bin	79.549333333333	0
bin	79.582666666667	0
bin	79.616	0
bin	79.649333333333	0
bin	79.682666666667	0
bin	79.716	0
bin	79.749333333333	0
bin	79.782666666667	0
bin	79.816	0
bin	79.849333333333	0
bin	79.882666666667	0
bin	79.916	0
statistic RandomGeometricGraph.rgnv[12] 	arrivalPerc:histogram
field count 1
field mean 1
field stddev nan
field sum 1
field sqrsum 1
field min 1
field max 1
attr interpolationmode  none
attr source  count(arrival)
attr title  "arrival perc, histogram"
bin	-INF	0
bin	0	0
bin	1	1
bin	2	0
statistic RandomGeometricGraph.rgnv[13] 	arrivalTime:histogram
field count 1
field mean 84.416
field stddev nan
field sum 84.416
field sqrsum 7126.061056
field min 84.416
field max 84.416
attr interpolationmode  none
attr source  arrivalTime
attr title  "arrival time, histogram"
bin	-INF	0
bin	83.916	0
bin	83.949333333333	0
bin	83.982666666667	0
bin	84.016	0
bin	84.049333333333	0
bin	84.082666666667	0
bin	84.116	0
bin	84.149333333333	0
bin	84.182666666667	0
bin	84.216	0
bin	84.249333333333	0
bin	84.282666666667	0
bin	84.316	0
bin	84.349333333333	0
bin	84.382666666667	0
bin	84.416	1
bin	84.449333333333	0
bin	84.482666666667	0
bin	84.516	0
bin	84.549333333333	0
bin	84.582666666667	0
bin	84.616	0
bin	84.649333333333	0
bin	84.682666666667	0
bin	84.716	0
bin	84.749333333333	0
bin	84.782666666667	0
bin	84.816	0
bin	84.849333333333	0
bin	84.882666666667	0
bin	84.916	0
statistic RandomGeometricGraph.rgnv[13] 	arrivalPerc:histogram
field count 1
field mean 1
field stddev nan
field sum 1
field sqrsum 1
field min 1
field max 1
attr interpolationmode  none
attr source  count(arrival)
attr title  "arrival perc, histogram"
bin	-INF	0
bin	0	0
bin	1	1
bin	2	0
statistic RandomGeometricGraph.rgnv[14] 	arrivalTime:histogram
field count 1
field mean 79.396
field stddev nan
field sum 79.396
field sqrsum 6303.724816
field min 79.396
field max 79.396
attr interpolationmode  none
attr source  arrivalTime
attr title  "arrival time, histogram"
bin	-INF	0
bin	78.896	0
bin	78.929333333333	0
bin	78.962666666667	0
bin	78.996	0
bin	79.029333333333	0
bin	79.062666666667	0
bin	79.096	0
bin	79.129333333333	0
bin	79.162666666667	0
bin	79.196	0
bin	79.229333333333	0
bin	79.262666666667	0
bin	79.296	0
bin	79.329333333333	0
bin	79.362666666667	0
bin	79.396	1
bin	79.429333333333	0
bin	79.462666666667	0
bin	79.496	0
bin	79.529333333333	0
bin	79.562666666667	0
bin	79.596	0
bin	79.629333333333	0
bin	79.662666666667	0
bin	79.696	0
bin	79.729333333333	0
bin	79.762666666667	0
bin	79.796	0
bin	79.829333333333	0
bin	79.862666666667	0
bin	79.896	0
statistic RandomGeometricGraph.rgnv[14] 	arrivalPerc:histogram
field count 1
field mean 1
field stddev nan
field sum 1
field sqrsum 1
field min 1
field max 1
attr interpolationmode  none
attr source  count(arrival)
attr title  "arrival perc, histogram"
bin	-INF	0
bin	0	0
bin	1	1
bin	2	0
statistic RandomGeometricGraph.rgnv[15] 	arrivalTime:histogram
field count 1
field mean 138.34
field stddev nan
field sum 138.34
field sqrsum 19137.9556
field min 138.34
field max 138.34
attr interpolationmode  none
attr source  arrivalTime
attr title  "arrival time, histogram"
bin	-INF	0
bin	137.84	0
bin	137.87333333333	0
bin	137.90666666667	0
bin	137.94	0
bin	137.97333333333	0
bin	138.00666666667	0
bin	138.04	0
bin	138.07333333333	0
bin	138.10666666667	0
bin	138.14	0
bin	138.17333333333	0
bin	138.20666666667	0
bin	138.24	0
bin	138.27333333333	0
bin	138.30666666667	0
bin	138.34	1
bin	138.37333333333	0
bin	138.40666666667	0
bin	138.44	0
bin	138.47333333333	0
bin	138.50666666667	0
bin	138.54	0
bin	138.57333333333	0
bin	138.60666666667	0
bin	138.64	0
bin	138.67333333333	0
bin	138.70666666667	0
bin	138.74	0
bin	138.77333333333	0
bin	138.80666666667	0
bin	138.84	0
statistic RandomGeometricGraph.rgnv[15] 	arrivalPerc:histogram
field count 1
field mean 1
field stddev nan
field sum 1
field sqrsum 1
field min 1
field max 1
attr interpolationmode  none
attr source  count(arrival)
attr title  "arrival perc, histogram"
bin	-INF	0
bin	0	0
bin	1	1
bin	2	0
statistic RandomGeometricGraph.rgnv[16] 	arrivalTime:histogram
field count 1
field mean 62.155
field stddev nan
field sum 62.155
field sqrsum 3863.244025
field min 62.155
field max 62.155
attr interpolationmode  none
attr source  arrivalTime
attr title  "arrival time, histogram"
bin	-INF	0
bin	61.655	0
bin	61.688333333333	0
bin	61.721666666667	0
bin	61.755	0
bin	61.788333333333	0
bin	61.821666666667	0
bin	61.855	0
bin	61.888333333333	0
bin	61.921666666667	0
bin	61.955	0
bin	61.988333333333	0
bin	62.021666666667	0
bin	62.055	0
bin	62.088333333333	0
bin	62.121666666667	0
bin	62.155	1
bin	62.188333333333	0
bin	62.221666666667	0
bin	62.255	0
bin	62.288333333333	0
bin	62.321666666667	0
bin	62.355	0
bin	62.388333333333	0
bin	62.421666666667	0
bin	62.455	0
bin	62.488333333333	0
bin	62.521666666667	0
bin	62.555	0
bin	62.588333333333	0
bin	62.621666666667	0
bin	62.655	0
statistic RandomGeometricGraph.rgnv[16] 	arrivalPerc:histogram
field count 1
field mean 1
field stddev nan
field sum 1
field sqrsum 1
field min 1
field max 1
attr interpolationmode  none
attr source  count(arrival)
attr title  "arrival perc, histogram"
bin	-INF	0
bin	0	0
bin	1	1
bin	2	0
statistic RandomGeometricGraph.rgnv[17] 	arrivalTime:histogram
field count 1
field mean 123.32
field stddev nan
field sum 123.32
field sqrsum 15207.8224
field min 123.32
field max 123.32
attr interpolationmode  none
attr source  arrivalTime
attr title  "arrival time, histogram"
bin	-INF	0
bin	122.82	0
bin	122.85333333333	0
bin	122.88666666667	0
bin	122.92	0
bin	122.95333333333	0
bin	122.98666666667	0
bin	123.02	0
bin	123.05333333333	0
bin	123.08666666667	0
bin	123.12	0
bin	123.15333333333	0
bin	123.18666666667	0
bin	123.22	0
bin	123.25333333333	0
bin	123.28666666667	0
bin	123.32	1
bin	123.35333333333	0
bin	123.38666666667	0
bin	123.42	0
bin	123.45333333333	0
bin	123.48666666667	0
bin	123.52	0
bin	123.55333333333	0
bin	123.58666666667	0
bin	123.62	0
bin	123.65333333333	0
bin	123.68666666667	0
bin	123.72	0
bin	123.75333333333	0
bin	123.78666666667	0
bin	123.82	0
statistic RandomGeometricGraph.rgnv[17] 	arrivalPerc:histogram
field count 1
field mean 1
field stddev nan
field sum 1
field sqrsum 1
field min 1
field max 1
attr interpolationmode  none
attr source  count(arrival)
attr title  "arrival perc, histogram"
bin	-INF	0
bin	0	0
bin	1	1
bin	2	0
statistic RandomGeometricGraph.rgnv[18] 	arrivalTime:histogram
field count 1
field mean 72.185
field stddev nan
field sum 72.185
field sqrsum 5210.674225
field min 72.185
field max 72.185
attr interpolationmode  none
attr source  arrivalTime
attr title  "arrival time, histogram"
bin	-INF	0
bin	71.685	0
bin	71.718333333333	0
bin	71.751666666667	0
bin	71.785	0
bin	71.818333333333	0
bin	71.851666666667	0
bin	71.885	0
bin	71.918333333333	0
bin	71.951666666667	0
bin	71.985	0
bin	72.018333333333	0
bin	72.051666666667	0
bin	72.085	0
bin	72.118333333333	0
bin	72.151666666667	0
bin	72.185	1
bin	72.218333333333	0
bin	72.251666666667	0
bin	72.285	0
bin	72.318333333333	0
bin	72.351666666667	0
bin	72.385	0
bin	72.418333333333	0
bin	72.451666666667	0
bin	72.485	0
bin	72.518333333333	0
bin	72.551666666667	0
bin	72.585	0
bin	72.618333333333	0
bin	72.651666666667	0
bin	72.685	0
statistic RandomGeometricGraph.rgnv[18] 	arrivalPerc:histogram
field count 1
field mean 1
field stddev nan
field sum 1
field sqrsum 1
field min 1
field max 1
attr interpolationmode  none
attr source  count(arrival)
attr title  "arrival perc, histogram"
bin	-INF	0
bin	0	0
bin	1	1
bin	2	0
statistic RandomGeometricGraph.rgnv[19] 	arrivalTime:histogram
field count 1
field mean 49.944
field stddev nan
field sum 49.944
field sqrsum 2494.403136
field min 49.944
field max 49.944
attr interpolationmode  none
attr source  arrivalTime
attr title  "arrival time, histogram"
bin	-INF	0
bin	49.444	0
bin	49.477333333333	0
bin	49.510666666667	0
bin	49.544	0
bin	49.577333333333	0
bin	49.610666666667	0
bin	49.644	0
bin	49.677333333333	0
bin	49.710666666667	0
bin	49.744	0
bin	49.777333333333	0
bin	49.810666666667	0
bin	49.844	0
bin	49.877333333333	0
bin	49.910666666667	0
bin	49.944	1
bin	49.977333333333	0
bin	50.010666666667	0
bin	50.044	0
bin	50.077333333333	0
bin	50.110666666667	0
bin	50.144	0
bin	50.177333333333	0
bin	50.210666666667	0
bin	50.244	0
bin	50.277333333333	0
bin	50.310666666667	0
bin	50.344	0
bin	50.377333333333	0
bin	50.410666666667	0
bin	50.444	0
statistic RandomGeometricGraph.rgnv[19] 	arrivalPerc:histogram
field count 1
field mean 1
field stddev nan
field sum 1
field sqrsum 1
field min 1
field max 1
attr interpolationmode  none
attr source  count(arrival)
attr title  "arrival perc, histogram"
bin	-INF	0
bin	0	0
bin	1	1
bin	2	0
statistic RandomGeometricGraph.rgnv[20] 	arrivalTime:histogram
field count 1
field mean 79.406
field stddev nan
field sum 79.406
field sqrsum 6305.312836
field min 79.406
field max 79.406
attr interpolationmode  none
attr source  arrivalTime
attr title  "arrival time, histogram"
bin	-INF	0
bin	78.906	0
bin	78.939333333333	0
bin	78.972666666667	0
bin	79.006	0
bin	79.039333333333	0
bin	79.072666666667	0
bin	79.106	0
bin	79.139333333333	0
bin	79.172666666667	0
bin	79.206	0
bin	79.239333333333	0
bin	79.272666666667	0
bin	79.306	0
bin	79.339333333333	0
bin	79.372666666667	0
bin	79.406	1
bin	79.439333333333	0
bin	79.472666666667	0
bin	79.506	0
bin	79.539333333333	0
bin	79.572666666667	0
bin	79.606	0
bin	79.639333333333	0
bin	79.672666666667	0
bin	79.706	0
bin	79.739333333333	0
bin	79.772666666667	0
bin	79.806	0
bin	79.839333333333	0
bin	79.872666666667	0
bin	79.906	0
statistic RandomGeometricGraph.rgnv[20] 	arrivalPerc:histogram
field count 1
field mean 1
field stddev nan
field sum 1
field sqrsum 1
field min 1
field max 1
attr interpolationmode  none
attr source  count(arrival)
attr title  "arrival perc, histogram"
bin	-INF	0
bin	0	0
bin	1	1
bin	2	0
statistic RandomGeometricGraph.rgnv[21] 	arrivalTime:histogram
field count 1
field mean 37.703
field stddev nan
field sum 37.703
field sqrsum 1421.516209
field min 37.703
field max 37.703
attr interpolationmode  none
attr source  arrivalTime
attr title  "arrival time, histogram"
bin	-INF	0
bin	37.203	0
bin	37.236333333333	0
bin	37.269666666667	0
bin	37.303	0
bin	37.336333333333	0
bin	37.369666666667	0
bin	37.403	0
bin	37.436333333333	0
bin	37.469666666667	0
bin	37.503	0
bin	37.536333333333	0
bin	37.569666666667	0
bin	37.603	0
bin	37.636333333333	0
bin	37.669666666667	0
bin	37.703	1
bin	37.736333333333	0
bin	37.769666666667	0
bin	37.803	0
bin	37.836333333333	0
bin	37.869666666667	0
bin	37.903	0
bin	37.936333333333	0
bin	37.969666666667	0
bin	38.003	0
bin	38.036333333333	0
bin	38.069666666667	0
bin	38.103	0
bin	38.136333333333	0
bin	38.169666666667	0
bin	38.203	0
statistic RandomGeometricGraph.rgnv[21] 	arrivalPerc:histogram
field count 1
field mean 1
field stddev nan
field sum 1
field sqrsum 1
field min 1
field max 1
attr interpolationmode  none
attr source  count(arrival)
attr title  "arrival perc, histogram"
bin	-INF	0
bin	0	0
bin	1	1
bin	2	0
statistic RandomGeometricGraph.rgnv[22] 	arrivalTime:histogram
field count 1
field mean 108.868
field stddev nan
field sum 108.868
field sqrsum 11852.241424
field min 108.868
field max 108.868
attr interpolationmode  none
attr source  arrivalTime
attr title  "arrival time, histogram"
bin	-INF	0
bin	108.368	0
bin	108.40133333333	0
bin	108.43466666667	0
bin	108.468	0
bin	108.50133333333	0
bin	108.53466666667	0
bin	108.568	0
bin	108.60133333333	0
bin	108.63466666667	0
bin	108.668	0
bin	108.70133333333	0
bin	108.73466666667	0
bin	108.768	0
bin	108.80133333333	0
bin	108.83466666667	0
bin	108.868	1
bin	108.90133333333	0
bin	108.93466666667	0
bin	108.968	0
bin	109.00133333333	0
bin	109.03466666667	0
bin	109.068	0
bin	109.10133333333	0
bin	109.13466666667	0
bin	109.168	0
bin	109.20133333333	0
bin	109.23466666667	0
bin	109.268	0
bin	109.30133333333	0
bin	109.33466666667	0
bin	109.368	0
statistic RandomGeometricGraph.rgnv[22] 	arrivalPerc:histogram
field count 1
field mean 1
field stddev nan
field sum 1
field sqrsum 1
field min 1
field max 1
attr interpolationmode  none
attr source  count(arrival)
attr title  "arrival perc, histogram"
bin	-INF	0
bin	0	0
bin	1	1
bin	2	0
statistic RandomGeometricGraph.rgnv[23] 	arrivalTime:histogram
field count 1
field mean 25.462
field stddev nan
field sum 25.462
field sqrsum 648.313444
field min 25.462
field max 25.462
attr interpolationmode  none
attr source  arrivalTime
attr title  "arrival time, histogram"
bin	-INF	0
bin	24.962	0
bin	24.995333333333	0
bin	25.028666666667	0
bin	25.062	0
bin	25.095333333333	0
bin	25.128666666667	0
bin	25.162	0
bin	25.195333333333	0
bin	25.228666666667	0
bin	25.262	0
bin	25.295333333333	0
bin	25.328666666667	0
bin	25.362	0
bin	25.395333333333	0
bin	25.428666666667	0
bin	25.462	1
bin	25.495333333333	0
bin	25.528666666667	0
bin	25.562	0
bin	25.595333333333	0
bin	25.628666666667	0
bin	25.662	0
bin	25.695333333333	0
bin	25.728666666667	0
bin	25.762	0
bin	25.795333333333	0
bin	25.828666666667	0
bin	25.862	0
bin	25.895333333333	0
bin	25.928666666667	0
bin	25.962	0
statistic RandomGeometricGraph.rgnv[23] 	arrivalPerc:histogram
field count 1
field mean 1
field stddev nan
field sum 1
field sqrsum 1
field min 1
field max 1
attr interpolationmode  none
attr source  count(arrival)
attr title  "arrival perc, histogram"
bin	-INF	0
bin	0	0
bin	1	1
bin	2	0
statistic RandomGeometricGraph.rgnv[24] 	arrivalTime:histogram
field count 1
field mean 116.099
field stddev nan
field sum 116.099
field sqrsum 13478.977801
field min 116.099
field max 116.099
attr interpolationmode  none
attr source  arrivalTime
attr title  "arrival time, histogram"
bin	-INF	0
bin	115.599	0
bin	115.63233333333	0
bin	115.66566666667	0
bin	115.699	0
bin	115.73233333333	0
bin	115.76566666667	0
bin	115.799	0
bin	115.83233333333	0
bin	115.86566666667	0
bin	115.899	0
bin	115.93233333333	0
bin	115.96566666667	0
bin	115.999	0
bin	116.03233333333	0
bin	116.06566666667	0
bin	116.099	1
bin	116.13233333333	0
bin	116.16566666667	0
bin	116.199	0
bin	116.23233333333	0
bin	116.26566666667	0
bin	116.299	0
bin	116.33233333333	0
bin	116.36566666667	0
bin	116.399	0
bin	116.43233333333	0
bin	116.46566666667	0
bin	116.499	0
bin	116.53233333333	0
bin	116.56566666667	0
bin	116.599	0
statistic RandomGeometricGraph.rgnv[24] 	arrivalPerc:histogram
field count 1
field mean 1
field stddev nan
field sum 1
field sqrsum 1
field min 1
field max 1
attr interpolationmode  none
attr source  count(arrival)
attr title  "arrival perc, histogram"
bin	-INF	0
bin	0	0
bin	1	1
bin	2	0
statistic RandomGeometricGraph.rgnv[25] 	arrivalTime:histogram
field count 1
field mean 91.637
field stddev nan
field sum 91.637
field sqrsum 8397.339769
field min 91.637
field max 91.637
attr interpolationmode  none
attr source  arrivalTime
attr title  "arrival time, histogram"
bin	-INF	0
bin	91.137	0
bin	91.170333333333	0
bin	91.203666666667	0
bin	91.237	0
bin	91.270333333333	0
bin	91.303666666667	0
bin	91.337	0
bin	91.370333333333	0
bin	91.403666666667	0
bin	91.437	0
bin	91.470333333333	0
bin	91.503666666667	0
bin	91.537	0
bin	91.570333333333	0
bin	91.603666666667	0
bin	91.637	1
bin	91.670333333333	0
bin	91.703666666667	0
bin	91.737	0
bin	91.770333333333	0
bin	91.803666666667	0
bin	91.837	0
bin	91.870333333333	0
bin	91.903666666667	0
bin	91.937	0
bin	91.970333333333	0
bin	92.003666666667	0
bin	92.037	0
bin	92.070333333333	0
bin	92.103666666667	0
bin	92.137	0
statistic RandomGeometricGraph.rgnv[25] 	arrivalPerc:histogram
field count 1
field mean 1
field stddev nan
field sum 1
field sqrsum 1
field min 1
field max 1
attr interpolationmode  none
attr source  count(arrival)
attr title  "arrival perc, histogram"
bin	-INF	0
bin	0	0
bin	1	1
bin	2	0
statistic RandomGeometricGraph.rgnv[26] 	arrivalTime:histogram
field count 1
field mean 79.416
field stddev nan
field sum 79.416
field sqrsum 6306.901056
field min 79.416
field max 79.416
attr interpolationmode  none
attr source  arrivalTime
attr title  "arrival time, histogram"
bin	-INF	0
bin	78.916	0
bin	78.949333333333	0
bin	78.982666666667	0
bin	79.016	0
bin	79.049333333333	0
bin	79.082666666667	0
bin	79.116	0
bin	79.149333333333	0
bin	79.182666666667	0
bin	79.216	0
bin	79.249333333333	0
bin	79.282666666667	0
bin	79.316	0
bin	79.349333333333	0
bin	79.382666666667	0
bin	79.416	1
bin	79.449333333333	0
bin	79.482666666667	0
bin	79.516	0
bin	79.549333333333	0
bin	79.582666666667	0
bin	79.616	0
bin	79.649333333333	0
bin	79.682666666667	0
bin	79.716	0
bin	79.749333333333	0
bin	79.782666666667	0
bin	79.816	0
bin	79.849333333333	0
bin	79.882666666667	0
bin	79.916	0
statistic RandomGeometricGraph.rgnv[26] 	arrivalPerc:histogram
field count 1
field mean 1
field stddev nan
field sum 1
field sqrsum 1
field min 1
field max 1
attr interpolationmode  none
attr source  count(arrival)
attr title  "arrival perc, histogram"
bin	-INF	0
bin	0	0
bin	1	1
bin	2	0
statistic RandomGeometricGraph.rgnv[27] 	arrivalTime:histogram
field count 1
field mean 103.868
field stddev nan
field sum 103.868
field sqrsum 10788.561424
field min 103.868
field max 103.868
attr interpolationmode  none
attr source  arrivalTime
attr title  "arrival time, histogram"
bin	-INF	0
bin	103.368	0
bin	103.40133333333	0
bin	103.43466666667	0
bin	103.468	0
bin	103.50133333333	0
bin	103.53466666667	0
bin	103.568	0
bin	103.60133333333	0
bin	103.63466666667	0
bin	103.668	0
bin	103.70133333333	0
bin	103.73466666667	0
bin	103.768	0
bin	103.80133333333	0
bin	103.83466666667	0
bin	103.868	1
bin	103.90133333333	0
bin	103.93466666667	0
bin	103.968	0
bin	104.00133333333	0
bin	104.03466666667	0
bin	104.068	0
bin	104.10133333333	0
bin	104.13466666667	0
bin	104.168	0
bin	104.20133333333	0
bin	104.23466666667	0
bin	104.268	0
bin	104.30133333333	0
bin	104.33466666667	0
bin	104.368	0
statistic RandomGeometricGraph.rgnv[27] 	arrivalPerc:histogram
field count 1
field mean 1
field stddev nan
field sum 1
field sqrsum 1
field min 1
field max 1
attr interpolationmode  none
attr source  count(arrival)
attr title  "arrival perc, histogram"
bin	-INF	0
bin	0	0
bin	1	1
bin	2	0
statistic RandomGeometricGraph.rgnv[28] 	arrivalTime:histogram
field count 1
field mean 138.34
field stddev nan
field sum 138.34
field sqrsum 19137.9556
field min 138.34
field max 138.34
attr interpolationmode  none
attr source  arrivalTime
attr title  "arrival time, histogram"
bin	-INF	0
bin	137.84	0
bin	137.87333333333	0
bin	137.90666666667	0
bin	137.94	0
bin	137.97333333333	0
bin	138.00666666667	0
bin	138.04	0
bin	138.07333333333	0
bin	138.10666666667	0
bin	138.14	0
bin	138.17333333333	0
bin	138.20666666667	0
bin	138.24	0
bin	138.27333333333	0
bin	138.30666666667	0
bin	138.34	1
bin	138.37333333333	0
bin	138.40666666667	0
bin	138.44	0
bin	138.47333333333	0
bin	138.50666666667	0
bin	138.54	0
bin	138.57333333333	0
bin	138.60666666667	0
bin	138.64	0
bin	138.67333333333	0
bin	138.70666666667	0
bin	138.74	0
bin	138.77333333333	0
bin	138.80666666667	0
bin	138.84	0
statistic RandomGeometricGraph.rgnv[28] 	arrivalPerc:histogram
field count 1
field mean 1
field stddev nan
field sum 1
field sqrsum 1
field min 1
field max 1
attr interpolationmode  none
attr source  count(arrival)
attr title  "arrival perc, histogram"
bin	-INF	0
bin	0	0
bin	1	1
bin	2	0
statistic RandomGeometricGraph.rgnv[29] 	arrivalTime:histogram
field count 1
field mean 157.802
field stddev nan
field sum 157.802
field sqrsum 24901.471204
field min 157.802
field max 157.802
attr interpolationmode  none
attr source  arrivalTime
attr title  "arrival time, histogram"
bin	-INF	0
bin	157.302	0
bin	157.33533333333	0
bin	157.36866666667	0
bin	157.402	0
bin	157.43533333333	0
bin	157.46866666667	0
bin	157.502	0
bin	157.53533333333	0
bin	157.56866666667	0
bin	157.602	0
bin	157.63533333333	0
bin	157.66866666667	0
bin	157.702	0
bin	157.73533333333	0
bin	157.76866666667	0
bin	157.802	1
bin	157.83533333333	0
bin	157.86866666667	0
bin	157.902	0
bin	157.93533333333	0
bin	157.96866666667	0
bin	158.002	0
bin	158.03533333333	0
bin	158.06866666667	0
bin	158.102	0
bin	158.13533333333	0
bin	158.16866666667	0
bin	158.202	0
bin	158.23533333333	0
bin	158.26866666667	0
bin	158.302	0
statistic RandomGeometricGraph.rgnv[29] 	arrivalPerc:histogram
field count 1
field mean 1
field stddev nan
field sum 1
field sqrsum 1
field min 1
field max 1
attr interpolationmode  none
attr source  count(arrival)
attr title  "arrival perc, histogram"
bin	-INF	0
bin	0	0
bin	1	1
bin	2	0
statistic RandomGeometricGraph.rgnv[30] 	arrivalTime:histogram
field count 1
field mean 98.868
field stddev nan
field sum 98.868
field sqrsum 9774.881424
field min 98.868
field max 98.868
attr interpolationmode  none
attr source  arrivalTime
attr title  "arrival time, histogram"
bin	-INF	0
bin	98.368	0
bin	98.401333333333	0
bin	98.434666666667	0
bin	98.468	0
bin	98.501333333333	0
bin	98.534666666667	0
bin	98.568	0
bin	98.601333333333	0
bin	98.634666666667	0
bin	98.668	0
bin	98.701333333333	0
bin	98.734666666667	0
bin	98.768	0
bin	98.801333333333	0
bin	98.834666666667	0
bin	98.868	1
bin	98.901333333333	0
bin	98.934666666667	0
bin	98.968	0
bin	99.001333333333	0
bin	99.034666666667	0
bin	99.068	0
bin	99.101333333333	0
bin	99.134666666667	0
bin	99.168	0
bin	99.201333333333	0
bin	99.234666666667	0
bin	99.268	0
bin	99.301333333333	0
bin	99.334666666667	0
bin	99.368	0
statistic RandomGeometricGraph.rgnv[30] 	arrivalPerc:histogram
field count 1
field mean 1
field stddev nan
field sum 1
field sqrsum 1
field min 1
field max 1
attr interpolationmode  none
attr source  count(arrival)
attr title  "arrival perc, histogram"
bin	-INF	0
bin	0	0
bin	1	1
bin	2	0
statistic RandomGeometricGraph.rgnv[31] 	arrivalTime:histogram
field count 1
field mean 116.099
field stddev nan
field sum 116.099
field sqrsum 13478.977801
field min 116.099
field max 116.099
attr interpolationmode  none
attr source  arrivalTime
attr title  "arrival time, histogram"
bin	-INF	0
bin	115.599	0
bin	115.63233333333	0
bin	115.66566666667	0
bin	115.699	0
bin	115.73233333333	0
bin	115.76566666667	0
bin	115.799	0
bin	115.83233333333	0
bin	115.86566666667	0
bin	115.899	0
bin	115.93233333333	0
bin	115.96566666667	0
bin	115.999	0
bin	116.03233333333	0
bin	116.06566666667	0
bin	116.099	1
bin	116.13233333333	0
bin	116.16566666667	0
bin	116.199	0
bin	116.23233333333	0
bin	116.26566666667	0
bin	116.299	0
bin	116.33233333333	0
bin	116.36566666667	0
bin	116.399	0
bin	116.43233333333	0
bin	116.46566666667	0
bin	116.499	0
bin	116.53233333333	0
bin	116.56566666667	0
bin	116.599	0
statistic RandomGeometricGraph.rgnv[31] 	arrivalPerc:histogram
field count 1
field mean 1
field stddev nan
field sum 1
field sqrsum 1
field min 1
field max 1
attr interpolationmode  none
attr source  count(arrival)
attr title  "arrival perc, histogram"
bin	-INF	0
bin	0	0
bin	1	1
bin	2	0
statistic RandomGeometricGraph.rgnv[32] 	arrivalTime:histogram
field count 1
field mean 123.32
field stddev nan
field sum 123.32
field sqrsum 15207.8224
field min 123.32
field max 123.32
attr interpolationmode  none
attr source  arrivalTime
attr title  "arrival time, histogram"
bin	-INF	0
bin	122.82	0
bin	122.85333333333	0
bin	122.88666666667	0
bin	122.92	0
bin	122.95333333333	0
bin	122.98666666667	0
bin	123.02	0
bin	123.05333333333	0
bin	123.08666666667	0
bin	123.12	0
bin	123.15333333333	0
bin	123.18666666667	0
bin	123.22	0
bin	123.25333333333	0
bin	123.28666666667	0
bin	123.32	1
bin	123.35333333333	0
bin	123.38666666667	0
bin	123.42	0
bin	123.45333333333	0
bin	123.48666666667	0
bin	123.52	0
bin	123.55333333333	0
bin	123.58666666667	0
bin	123.62	0
bin	123.65333333333	0
bin	123.68666666667	0
bin	123.72	0
bin	123.75333333333	0
bin	123.78666666667	0
bin	123.82	0
statistic RandomGeometricGraph.rgnv[32] 	arrivalPerc:histogram
field count 1
field mean 1
field stddev nan
field sum 1
field sqrsum 1
field min 1
field max 1
attr interpolationmode  none
attr source  count(arrival)
attr title  "arrival perc, histogram"
bin	-INF	0
bin	0	0
bin	1	1
bin	2	0
statistic RandomGeometricGraph.rgnv[33] 	arrivalTime:histogram
field count 1
field mean 67.175
field stddev nan
field sum 67.175
field sqrsum 4512.480625
field min 67.175
field max 67.175
attr interpolationmode  none
attr source  arrivalTime
attr title  "arrival time, histogram"
bin	-INF	0
bin	66.675	0
bin	66.708333333333	0
bin	66.741666666667	0
bin	66.775	0
bin	66.808333333333	0
bin	66.841666666667	0
bin	66.875	0
bin	66.908333333333	0
bin	66.941666666667	0
bin	66.975	0
bin	67.008333333333	0
bin	67.041666666667	0
bin	67.075	0
bin	67.108333333333	0
bin	67.141666666667	0
bin	67.175	1
bin	67.208333333333	0
bin	67.241666666667	0
bin	67.275	0
bin	67.308333333333	0
bin	67.341666666667	0
bin	67.375	0
bin	67.408333333333	0
bin	67.441666666667	0
bin	67.475	0
bin	67.508333333333	0
bin	67.541666666667	0
bin	67.575	0
bin	67.608333333333	0
bin	67.641666666667	0
bin	67.675	0
statistic RandomGeometricGraph.rgnv[33] 	arrivalPerc:histogram
field count 1
field mean 1
field stddev nan
field sum 1
field sqrsum 1
field min 1
field max 1
attr interpolationmode  none
attr source  count(arrival)
attr title  "arrival perc, histogram"
bin	-INF	0
bin	0	0
bin	1	1
bin	2	0
statistic RandomGeometricGraph.rgnv[34] 	arrivalTime:histogram
field count 1
field mean 91.657
field stddev nan
field sum 91.657
field sqrsum 8401.005649
field min 91.657
field max 91.657
attr interpolationmode  none
attr source  arrivalTime
attr title  "arrival time, histogram"
bin	-INF	0
bin	91.157	0
bin	91.190333333333	0
bin	91.223666666667	0
bin	91.257	0
bin	91.290333333333	0
bin	91.323666666667	0
bin	91.357	0
bin	91.390333333333	0
bin	91.423666666667	0
bin	91.457	0
bin	91.490333333333	0
bin	91.523666666667	0
bin	91.557	0
bin	91.590333333333	0
bin	91.623666666667	0
bin	91.657	1
bin	91.690333333333	0
bin	91.723666666667	0
bin	91.757	0
bin	91.790333333333	0
bin	91.823666666667	0
bin	91.857	0
bin	91.890333333333	0
bin	91.923666666667	0
bin	91.957	0
bin	91.990333333333	0
bin	92.023666666667	0
bin	92.057	0
bin	92.090333333333	0
bin	92.123666666667	0
bin	92.157	0
statistic RandomGeometricGraph.rgnv[34] 	arrivalPerc:histogram
field count 1
field mean 1
field stddev nan
field sum 1
field sqrsum 1
field min 1
field max 1
attr interpolationmode  none
attr source  count(arrival)
attr title  "arrival perc, histogram"
bin	-INF	0
bin	0	0
bin	1	1
bin	2	0
statistic RandomGeometricGraph.rgnv[35] 	arrivalTime:histogram
field count 1
field mean 67.175
field stddev nan
field sum 67.175
field sqrsum 4512.480625
field min 67.175
field max 67.175
attr interpolationmode  none
attr source  arrivalTime
attr title  "arrival time, histogram"
bin	-INF	0
bin	66.675	0
bin	66.708333333333	0
bin	66.741666666667	0
bin	66.775	0
bin	66.808333333333	0
bin	66.841666666667	0
bin	66.875	0
bin	66.908333333333	0
bin	66.941666666667	0
bin	66.975	0
bin	67.008333333333	0
bin	67.041666666667	0
bin	67.075	0
bin	67.108333333333	0
bin	67.141666666667	0
bin	67.175	1
bin	67.208333333333	0
bin	67.241666666667	0
bin	67.275	0
bin	67.308333333333	0
bin	67.341666666667	0
bin	67.375	0
bin	67.408333333333	0
bin	67.441666666667	0
bin	67.475	0
bin	67.508333333333	0
bin	67.541666666667	0
bin	67.575	0
bin	67.608333333333	0
bin	67.641666666667	0
bin	67.675	0
statistic RandomGeometricGraph.rgnv[35] 	arrivalPerc:histogram
field count 1
field mean 1
field stddev nan
field sum 1
field sqrsum 1
field min 1
field max 1
attr interpolationmode  none
attr source  count(arrival)
attr title  "arrival perc, histogram"
bin	-INF	0
bin	0	0
bin	1	1
bin	2	0
statistic RandomGeometricGraph.rgnv[36] 	arrivalTime:histogram
field count 1
field mean 96.657
field stddev nan
field sum 96.657
field sqrsum 9342.575649
field min 96.657
field max 96.657
attr interpolationmode  none
attr source  arrivalTime
attr title  "arrival time, histogram"
bin	-INF	0
bin	96.157	0
bin	96.190333333333	0
bin	96.223666666667	0
bin	96.257	0
bin	96.290333333333	0
bin	96.323666666667	0
bin	96.357	0
bin	96.390333333333	0
bin	96.423666666667	0
bin	96.457	0
bin	96.490333333333	0
bin	96.523666666667	0
bin	96.557	0
bin	96.590333333333	0
bin	96.623666666667	0
bin	96.657	1
bin	96.690333333333	0
bin	96.723666666667	0
bin	96.757	0
bin	96.790333333333	0
bin	96.823666666667	0
bin	96.857	0
bin	96.890333333333	0
bin	96.923666666667	0
bin	96.957	0
bin	96.990333333333	0
bin	97.023666666667	0
bin	97.057	0
bin	97.090333333333	0
bin	97.123666666667	0
bin	97.157	0
statistic RandomGeometricGraph.rgnv[36] 	arrivalPerc:histogram
field count 1
field mean 1
field stddev nan
field sum 1
field sqrsum 1
field min 1
field max 1
attr interpolationmode  none
attr source  count(arrival)
attr title  "arrival perc, histogram"
bin	-INF	0
bin	0	0
bin	1	1
bin	2	0
statistic RandomGeometricGraph.rgnv[37] 	arrivalTime:histogram
field count 1
field mean 89.416
field stddev nan
field sum 89.416
field sqrsum 7995.221056
field min 89.416
field max 89.416
attr interpolationmode  none
attr source  arrivalTime
attr title  "arrival time, histogram"
bin	-INF	0
bin	88.916	0
bin	88.949333333333	0
bin	88.982666666667	0
bin	89.016	0
bin	89.049333333333	0
bin	89.082666666667	0
bin	89.116	0
bin	89.149333333333	0
bin	89.182666666667	0
bin	89.216	0
bin	89.249333333333	0
bin	89.282666666667	0
bin	89.316	0
bin	89.349333333333	0
bin	89.382666666667	0
bin	89.416	1
bin	89.449333333333	0
bin	89.482666666667	0
bin	89.516	0
bin	89.549333333333	0
bin	89.582666666667	0
bin	89.616	0
bin	89.649333333333	0
bin	89.682666666667	0
bin	89.716	0
bin	89.749333333333	0
bin	89.782666666667	0
bin	89.816	0
bin	89.849333333333	0
bin	89.882666666667	0
bin	89.916	0
statistic RandomGeometricGraph.rgnv[37] 	arrivalPerc:histogram
field count 1
field mean 1
field stddev nan
field sum 1
field sqrsum 1
field min 1
field max 1
attr interpolationmode  none
attr source  count(arrival)
attr title  "arrival perc, histogram"
bin	-INF	0
bin	0	0
bin	1	1
bin	2	0
statistic RandomGeometricGraph.rgnv[38] 	arrivalTime:histogram
field count 1
field mean 116.119
field stddev nan
field sum 116.119
field sqrsum 13483.622161
field min 116.119
field max 116.119
attr interpolationmode  none
attr source  arrivalTime
attr title  "arrival time, histogram"
bin	-INF	0
bin	115.619	0
bin	115.65233333333	0
bin	115.68566666667	0
bin	115.719	0
bin	115.75233333333	0
bin	115.78566666667	0
bin	115.819	0
bin	115.85233333333	0
bin	115.88566666667	0
bin	115.919	0
bin	115.95233333333	0
bin	115.98566666667	0
bin	116.019	0
bin	116.05233333333	0
bin	116.08566666667	0
bin	116.119	1
bin	116.15233333333	0
bin	116.18566666667	0
bin	116.219	0
bin	116.25233333333	0
bin	116.28566666667	0
bin	116.319	0
bin	116.35233333333	0
bin	116.38566666667	0
bin	116.419	0
bin	116.45233333333	0
bin	116.48566666667	0
bin	116.519	0
bin	116.55233333333	0
bin	116.58566666667	0
bin	116.619	0
statistic RandomGeometricGraph.rgnv[38] 	arrivalPerc:histogram
field count 1
field mean 1
field stddev nan
field sum 1
field sqrsum 1
field min 1
field max 1
attr interpolationmode  none
attr source  count(arrival)
attr title  "arrival perc, histogram"
bin	-INF	0
bin	0	0
bin	1	1
bin	2	0
statistic RandomGeometricGraph.rgnv[39] 	arrivalTime:histogram
field count 1
field mean 101.647
field stddev nan
field sum 101.647
field sqrsum 10332.112609
field min 101.647
field max 101.647
attr interpolationmode  none
attr source  arrivalTime
attr title  "arrival time, histogram"
bin	-INF	0
bin	101.147	0
bin	101.18033333333	0
bin	101.21366666667	0
bin	101.247	0
bin	101.28033333333	0
bin	101.31366666667	0
bin	101.347	0
bin	101.38033333333	0
bin	101.41366666667	0
bin	101.447	0
bin	101.48033333333	0
bin	101.51366666667	0
bin	101.547	0
bin	101.58033333333	0
bin	101.61366666667	0
bin	101.647	1
bin	101.68033333333	0
bin	101.71366666667	0
bin	101.747	0
bin	101.78033333333	0
bin	101.81366666667	0
bin	101.847	0
bin	101.88033333333	0
bin	101.91366666667	0
bin	101.947	0
bin	101.98033333333	0
bin	102.01366666667	0
bin	102.047	0
bin	102.08033333333	0
bin	102.11366666667	0
bin	102.147	0
statistic RandomGeometricGraph.rgnv[39] 	arrivalPerc:histogram
field count 1
field mean 1
field stddev nan
field sum 1
field sqrsum 1
field min 1
field max 1
attr interpolationmode  none
attr source  count(arrival)
attr title  "arrival perc, histogram"
bin	-INF	0
bin	0	0
bin	1	1
bin	2	0
statistic RandomGeometricGraph.rgnv[40] 	arrivalTime:histogram
field count 1
field mean 37.693
field stddev nan
field sum 37.693
field sqrsum 1420.762249
field min 37.693
field max 37.693
attr interpolationmode  none
attr source  arrivalTime
attr title  "arrival time, histogram"
bin	-INF	0
bin	37.193	0
bin	37.226333333333	0
bin	37.259666666667	0
bin	37.293	0
bin	37.326333333333	0
bin	37.359666666667	0
bin	37.393	0
bin	37.426333333333	0
bin	37.459666666667	0
bin	37.493	0
bin	37.526333333333	0
bin	37.559666666667	0
bin	37.593	0
bin	37.626333333333	0
bin	37.659666666667	0
bin	37.693	1
bin	37.726333333333	0
bin	37.759666666667	0
bin	37.793	0
bin	37.826333333333	0
bin	37.859666666667	0
bin	37.893	0
bin	37.926333333333	0
bin	37.959666666667	0
bin	37.993	0
bin	38.026333333333	0
bin	38.059666666667	0
bin	38.093	0
bin	38.126333333333	0
bin	38.159666666667	0
bin	38.193	0
statistic RandomGeometricGraph.rgnv[40] 	arrivalPerc:histogram
field count 1
field mean 1
field stddev nan
field sum 1
field sqrsum 1
field min 1
field max 1
attr interpolationmode  none
attr source  count(arrival)
attr title  "arrival perc, histogram"
bin	-INF	0
bin	0	0
bin	1	1
bin	2	0
statistic RandomGeometricGraph.rgnv[41] 	arrivalTime:histogram
field count 1
field mean 91.637
field stddev nan
field sum 91.637
field sqrsum 8397.339769
field min 91.637
field max 91.637
attr interpolationmode  none
attr source  arrivalTime
attr title  "arrival time, histogram"
bin	-INF	0
bin	91.137	0
bin	91.170333333333	0
bin	91.203666666667	0
bin	91.237	0
bin	91.270333333333	0
bin	91.303666666667	0
bin	91.337	0
bin	91.370333333333	0
bin	91.403666666667	0
bin	91.437	0
bin	91.470333333333	0
bin	91.503666666667	0
bin	91.537	0
bin	91.570333333333	0
bin	91.603666666667	0
bin	91.637	1
bin	91.670333333333	0
bin	91.703666666667	0
bin	91.737	0
bin	91.770333333333	0
bin	91.803666666667	0
bin	91.837	0
bin	91.870333333333	0
bin	91.903666666667	0
bin	91.937	0
bin	91.970333333333	0
bin	92.003666666667	0
bin	92.037	0
bin	92.070333333333	0
bin	92.103666666667	0
bin	92.137	0
statistic RandomGeometricGraph.rgnv[41] 	arrivalPerc:histogram
field count 1
field mean 1
field stddev nan
field sum 1
field sqrsum 1
field min 1
field max 1
attr interpolationmode  none
attr source  count(arrival)
attr title  "arrival perc, histogram"
bin	-INF	0
bin	0	0
bin	1	1
bin	2	0
statistic RandomGeometricGraph.rgnv[42] 	arrivalTime:histogram
field count 1
field mean 89.426
field stddev nan
field sum 89.426
field sqrsum 7997.009476
field min 89.426
field max 89.426
attr interpolationmode  none
attr source  arrivalTime
attr title  "arrival time, histogram"
bin	-INF	0
bin	88.926	0
bin	88.959333333333	0
bin	88.992666666667	0
bin	89.026	0
bin	89.059333333333	0
bin	89.092666666667	0
bin	89.126	0
bin	89.159333333333	0
bin	89.192666666667	0
bin	89.226	0
bin	89.259333333333	0
bin	89.292666666667	0
bin	89.326	0
bin	89.359333333333	0
bin	89.392666666667	0
bin	89.426	1
bin	89.459333333333	0
bin	89.492666666667	0
bin	89.526	0
bin	89.559333333333	0
bin	89.592666666667	0
bin	89.626	0
bin	89.659333333333	0
bin	89.692666666667	0
bin	89.726	0
bin	89.759333333333	0
bin	89.792666666667	0
bin	89.826	0
bin	89.859333333333	0
bin	89.892666666667	0
bin	89.926	0
statistic RandomGeometricGraph.rgnv[42] 	arrivalPerc:histogram
field count 1
field mean 1
field stddev nan
field sum 1
field sqrsum 1
field min 1
field max 1
attr interpolationmode  none
attr source  count(arrival)
attr title  "arrival perc, histogram"
bin	-INF	0
bin	0	0
bin	1	1
bin	2	0
statistic RandomGeometricGraph.rgnv[43] 	arrivalTime:histogram
field count 1
field mean 91.637
field stddev nan
field sum 91.637
field sqrsum 8397.339769
field min 91.637
field max 91.637
attr interpolationmode  none
attr source  arrivalTime
attr title  "arrival time, histogram"
bin	-INF	0
bin	91.137	0
bin	91.170333333333	0
bin	91.203666666667	0
bin	91.237	0
bin	91.270333333333	0
bin	91.303666666667	0
bin	91.337	0
bin	91.370333333333	0
bin	91.403666666667	0
bin	91.437	0
bin	91.470333333333	0
bin	91.503666666667	0
bin	91.537	0
bin	91.570333333333	0
bin	91.603666666667	0
bin	91.637	1
bin	91.670333333333	0
bin	91.703666666667	0
bin	91.737	0
bin	91.770333333333	0
bin	91.803666666667	0
bin	91.837	0
bin	91.870333333333	0
bin	91.903666666667	0
bin	91.937	0
bin	91.970333333333	0
bin	92.003666666667	0
bin	92.037	0
bin	92.070333333333	0
bin	92.103666666667	0
bin	92.137	0
statistic RandomGeometricGraph.rgnv[43] 	arrivalPerc:histogram
field count 1
field mean 1
field stddev nan
field sum 1
field sqrsum 1
field min 1
field max 1
attr interpolationmode  none
attr source  count(arrival)
attr title  "arrival perc, histogram"
bin	-INF	0
bin	0	0
bin	1	1
bin	2	0
statistic RandomGeometricGraph.rgnv[44] 	arrivalTime:histogram
field count 1
field mean 150.561
field stddev nan
field sum 150.561
field sqrsum 22668.614721
field min 150.561
field max 150.561
attr interpolationmode  none
attr source  arrivalTime
attr title  "arrival time, histogram"
bin	-INF	0
bin	150.061	0
bin	150.09433333333	0
bin	150.12766666667	0
bin	150.161	0
bin	150.19433333333	0
bin	150.22766666667	0
bin	150.261	0
bin	150.29433333333	0
bin	150.32766666667	0
bin	150.361	0
bin	150.39433333333	0
bin	150.42766666667	0
bin	150.461	0
bin	150.49433333333	0
bin	150.52766666667	0
bin	150.561	1
bin	150.59433333333	0
bin	150.62766666667	0
bin	150.661	0
bin	150.69433333333	0
bin	150.72766666667	0
bin	150.761	0
bin	150.79433333333	0
bin	150.82766666667	0
bin	150.861	0
bin	150.89433333333	0
bin	150.92766666667	0
bin	150.961	0
bin	150.99433333333	0
bin	151.02766666667	0
bin	151.061	0
statistic RandomGeometricGraph.rgnv[44] 	arrivalPerc:histogram
field count 1
field mean 1
field stddev nan
field sum 1
field sqrsum 1
field min 1
field max 1
attr interpolationmode  none
attr source  count(arrival)
attr title  "arrival perc, histogram"
bin	-INF	0
bin	0	0
bin	1	1
bin	2	0
statistic RandomGeometricGraph.rgnv[45] 	arrivalTime:histogram
field count 1
field mean 67.185
field stddev nan
field sum 67.185
field sqrsum 4513.824225
field min 67.185
field max 67.185
attr interpolationmode  none
attr source  arrivalTime
attr title  "arrival time, histogram"
bin	-INF	0
bin	66.685	0
bin	66.718333333333	0
bin	66.751666666667	0
bin	66.785	0
bin	66.818333333333	0
bin	66.851666666667	0
bin	66.885	0
bin	66.918333333333	0
bin	66.951666666667	0
bin	66.985	0
bin	67.018333333333	0
bin	67.051666666667	0
bin	67.085	0
bin	67.118333333333	0
bin	67.151666666667	0
bin	67.185	1
bin	67.218333333333	0
bin	67.251666666667	0
bin	67.285	0
bin	67.318333333333	0
bin	67.351666666667	0
bin	67.385	0
bin	67.418333333333	0
bin	67.451666666667	0
bin	67.485	0
bin	67.518333333333	0
bin	67.551666666667	0
bin	67.585	0
bin	67.618333333333	0
bin	67.651666666667	0
bin	67.685	0
statistic RandomGeometricGraph.rgnv[45] 	arrivalPerc:histogram
field count 1
field mean 1
field stddev nan
field sum 1
field sqrsum 1
field min 1
field max 1
attr interpolationmode  none
attr source  count(arrival)
attr title  "arrival perc, histogram"
bin	-INF	0
bin	0	0
bin	1	1
bin	2	0
statistic RandomGeometricGraph.rgnv[46] 	arrivalTime:histogram
field count 1
field mean 98.858
field stddev nan
field sum 98.858
field sqrsum 9772.904164
field min 98.858
field max 98.858
attr interpolationmode  none
attr source  arrivalTime
attr title  "arrival time, histogram"
bin	-INF	0
bin	98.358	0
bin	98.391333333333	0
bin	98.424666666667	0
bin	98.458	0
bin	98.491333333333	0
bin	98.524666666667	0
bin	98.558	0
bin	98.591333333333	0
bin	98.624666666667	0
bin	98.658	0
bin	98.691333333333	0
bin	98.724666666667	0
bin	98.758	0
bin	98.791333333333	0
bin	98.824666666667	0
bin	98.858	1
bin	98.891333333333	0
bin	98.924666666667	0
bin	98.958	0
bin	98.991333333333	0
bin	99.024666666667	0
bin	99.058	0
bin	99.091333333333	0
bin	99.124666666667	0
bin	99.158	0
bin	99.191333333333	0
bin	99.224666666667	0
bin	99.258	0
bin	99.291333333333	0
bin	99.324666666667	0
bin	99.358	0
statistic RandomGeometricGraph.rgnv[46] 	arrivalPerc:histogram
field count 1
field mean 1
field stddev nan
field sum 1
field sqrsum 1
field min 1
field max 1
attr interpolationmode  none
attr source  count(arrival)
attr title  "arrival perc, histogram"
bin	-INF	0
bin	0	0
bin	1	1
bin	2	0
statistic RandomGeometricGraph.rgnv[47] 	arrivalTime:histogram
field count 1
field mean 101.647
field stddev nan
field sum 101.647
field sqrsum 10332.112609
field min 101.647
field max 101.647
attr interpolationmode  none
attr source  arrivalTime
attr title  "arrival time, histogram"
bin	-INF	0
bin	101.147	0
bin	101.18033333333	0
bin	101.21366666667	0
bin	101.247	0
bin	101.28033333333	0
bin	101.31366666667	0
bin	101.347	0
bin	101.38033333333	0
bin	101.41366666667	0
bin	101.447	0
bin	101.48033333333	0
bin	101.51366666667	0
bin	101.547	0
bin	101.58033333333	0
bin	101.61366666667	0
bin	101.647	1
bin	101.68033333333	0
bin	101.71366666667	0
bin	101.747	0
bin	101.78033333333	0
bin	101.81366666667	0
bin	101.847	0
bin	101.88033333333	0
bin	101.91366666667	0
bin	101.947	0
bin	101.98033333333	0
bin	102.01366666667	0
bin	102.047	0
bin	102.08033333333	0
bin	102.11366666667	0
bin	102.147	0
statistic RandomGeometricGraph.rgnv[47] 	arrivalPerc:histogram
field count 1
field mean 1
field stddev nan
field sum 1
field sqrsum 1
field min 1
field max 1
attr interpolationmode  none
attr source  count(arrival)
attr title  "arrival perc, histogram"
bin	-INF	0
bin	0	0
bin	1	1
bin	2	0
statistic RandomGeometricGraph.rgnv[48] 	arrivalTime:histogram
field count 1
field mean 72.195
field stddev nan
field sum 72.195
field sqrsum 5212.118025
field min 72.195
field max 72.195
attr interpolationmode  none
attr source  arrivalTime
attr title  "arrival time, histogram"
bin	-INF	0
bin	71.695	0
bin	71.728333333333	0
bin	71.761666666667	0
bin	71.795	0
bin	71.828333333333	0
bin	71.861666666667	0
bin	71.895	0
bin	71.928333333333	0
bin	71.961666666667	0
bin	71.995	0
bin	72.028333333333	0
bin	72.061666666667	0
bin	72.095	0
bin	72.128333333333	0
bin	72.161666666667	0
bin	72.195	1
bin	72.228333333333	0
bin	72.261666666667	0
bin	72.295	0
bin	72.328333333333	0
bin	72.361666666667	0
bin	72.395	0
bin	72.428333333333	0
bin	72.461666666667	0
bin	72.495	0
bin	72.528333333333	0
bin	72.561666666667	0
bin	72.595	0
bin	72.628333333333	0
bin	72.661666666667	0
bin	72.695	0
statistic RandomGeometricGraph.rgnv[48] 	arrivalPerc:histogram
field count 1
field mean 1
field stddev nan
field sum 1
field sqrsum 1
field min 1
field max 1
attr interpolationmode  none
attr source  count(arrival)
attr title  "arrival perc, histogram"
bin	-INF	0
bin	0	0
bin	1	1
bin	2	0
statistic RandomGeometricGraph.rgnv[49] 	arrivalTime:histogram
field count 1
field mean 116.109
field stddev nan
field sum 116.109
field sqrsum 13481.299881
field min 116.109
field max 116.109
attr interpolationmode  none
attr source  arrivalTime
attr title  "arrival time, histogram"
bin	-INF	0
bin	115.609	0
bin	115.64233333333	0
bin	115.67566666667	0
bin	115.709	0
bin	115.74233333333	0
bin	115.77566666667	0
bin	115.809	0
bin	115.84233333333	0
bin	115.87566666667	0
bin	115.909	0
bin	115.94233333333	0
bin	115.97566666667	0
bin	116.009	0
bin	116.04233333333	0
bin	116.07566666667	0
bin	116.109	1
bin	116.14233333333	0
bin	116.17566666667	0
bin	116.209	0
bin	116.24233333333	0
bin	116.27566666667	0
bin	116.309	0
bin	116.34233333333	0
bin	116.37566666667	0
bin	116.409	0
bin	116.44233333333	0
bin	116.47566666667	0
bin	116.509	0
bin	116.54233333333	0
bin	116.57566666667	0
bin	116.609	0
statistic RandomGeometricGraph.rgnv[49] 	arrivalPerc:histogram
field count 1
field mean 1
field stddev nan
field sum 1
field sqrsum 1
field min 1
field max 1
attr interpolationmode  none
attr source  count(arrival)
attr title  "arrival perc, histogram"
bin	-INF	0
bin	0	0
bin	1	1
bin	2	0
statistic RandomGeometricGraph.rgnv[50] 	arrivalTime:histogram
field count 1
field mean 108.868
field stddev nan
field sum 108.868
field sqrsum 11852.241424
field min 108.868
field max 108.868
attr interpolationmode  none
attr source  arrivalTime
attr title  "arrival time, histogram"
bin	-INF	0
bin	108.368	0
bin	108.40133333333	0
bin	108.43466666667	0
bin	108.468	0
bin	108.50133333333	0
bin	108.53466666667	0
bin	108.568	0
bin	108.60133333333	0
bin	108.63466666667	0
bin	108.668	0
bin	108.70133333333	0
bin	108.73466666667	0
bin	108.768	0
bin	108.80133333333	0
bin	108.83466666667	0
bin	108.868	1
bin	108.90133333333	0
bin	108.93466666667	0
bin	108.968	0
bin	109.00133333333	0
bin	109.03466666667	0
bin	109.068	0
bin	109.10133333333	0
bin	109.13466666667	0
bin	109.168	0
bin	109.20133333333	0
bin	109.23466666667	0
bin	109.268	0
bin	109.30133333333	0
bin	109.33466666667	0
bin	109.368	0
statistic RandomGeometricGraph.rgnv[50] 	arrivalPerc:histogram
field count 1
field mean 1
field stddev nan
field sum 1
field sqrsum 1
field min 1
field max 1
attr interpolationmode  none
attr source  count(arrival)
attr title  "arrival perc, histogram"
bin	-INF	0
bin	0	0
bin	1	1
bin	2	0
statistic RandomGeometricGraph.rgnv[51] 	arrivalTime:histogram
field count 1
field mean 108.888
field stddev nan
field sum 108.888
field sqrsum 11856.596544
field min 108.888
field max 108.888
attr interpolationmode  none
attr source  arrivalTime
attr title  "arrival time, histogram"
bin	-INF	0
bin	108.388	0
bin	108.42133333333	0
bin	108.45466666667	0
bin	108.488	0
bin	108.52133333333	0
bin	108.55466666667	0
bin	108.588	0
bin	108.62133333333	0
bin	108.65466666667	0
bin	108.688	0
bin	108.72133333333	0
bin	108.75466666667	0
bin	108.788	0
bin	108.82133333333	0
bin	108.85466666667	0
bin	108.888	1
bin	108.92133333333	0
bin	108.95466666667	0
bin	108.988	0
bin	109.02133333333	0
bin	109.05466666667	0
bin	109.088	0
bin	109.12133333333	0
bin	109.15466666667	0
bin	109.188	0
bin	109.22133333333	0
bin	109.25466666667	0
bin	109.288	0
bin	109.32133333333	0
bin	109.35466666667	0
bin	109.388	0
statistic RandomGeometricGraph.rgnv[51] 	arrivalPerc:histogram
field count 1
field mean 1
field stddev nan
field sum 1
field sqrsum 1
field min 1
field max 1
attr interpolationmode  none
attr source  count(arrival)
attr title  "arrival perc, histogram"
bin	-INF	0
bin	0	0
bin	1	1
bin	2	0
statistic RandomGeometricGraph.rgnv[52] 	arrivalTime:histogram
field count 1
field mean 121.099
field stddev nan
field sum 121.099
field sqrsum 14664.967801
field min 121.099
field max 121.099
attr interpolationmode  none
attr source  arrivalTime
attr title  "arrival time, histogram"
bin	-INF	0
bin	120.599	0
bin	120.63233333333	0
bin	120.66566666667	0
bin	120.699	0
bin	120.73233333333	0
bin	120.76566666667	0
bin	120.799	0
bin	120.83233333333	0
bin	120.86566666667	0
bin	120.899	0
bin	120.93233333333	0
bin	120.96566666667	0
bin	120.999	0
bin	121.03233333333	0
bin	121.06566666667	0
bin	121.099	1
bin	121.13233333333	0
bin	121.16566666667	0
bin	121.199	0
bin	121.23233333333	0
bin	121.26566666667	0
bin	121.299	0
bin	121.33233333333	0
bin	121.36566666667	0
bin	121.399	0
bin	121.43233333333	0
bin	121.46566666667	0
bin	121.499	0
bin	121.53233333333	0
bin	121.56566666667	0
bin	121.599	0
statistic RandomGeometricGraph.rgnv[52] 	arrivalPerc:histogram
field count 1
field mean 1
field stddev nan
field sum 1
field sqrsum 1
field min 1
field max 1
attr interpolationmode  none
attr source  count(arrival)
attr title  "arrival perc, histogram"
bin	-INF	0
bin	0	0
bin	1	1
bin	2	0
statistic RandomGeometricGraph.rgnv[53] 	arrivalTime:histogram
field count 1
field mean 49.924
field stddev nan
field sum 49.924
field sqrsum 2492.405776
field min 49.924
field max 49.924
attr interpolationmode  none
attr source  arrivalTime
attr title  "arrival time, histogram"
bin	-INF	0
bin	49.424	0
bin	49.457333333333	0
bin	49.490666666667	0
bin	49.524	0
bin	49.557333333333	0
bin	49.590666666667	0
bin	49.624	0
bin	49.657333333333	0
bin	49.690666666667	0
bin	49.724	0
bin	49.757333333333	0
bin	49.790666666667	0
bin	49.824	0
bin	49.857333333333	0
bin	49.890666666667	0
bin	49.924	1
bin	49.957333333333	0
bin	49.990666666667	0
bin	50.024	0
bin	50.057333333333	0
bin	50.090666666667	0
bin	50.124	0
bin	50.157333333333	0
bin	50.190666666667	0
bin	50.224	0
bin	50.257333333333	0
bin	50.290666666667	0
bin	50.324	0
bin	50.357333333333	0
bin	50.390666666667	0
bin	50.424	0
statistic RandomGeometricGraph.rgnv[53] 	arrivalPerc:histogram
field count 1
field mean 1
field stddev nan
field sum 1
field sqrsum 1
field min 1
field max 1
attr interpolationmode  none
attr source  count(arrival)
attr title  "arrival perc, histogram"
bin	-INF	0
bin	0	0
bin	1	1
bin	2	0
statistic RandomGeometricGraph.rgnv[54] 	arrivalTime:histogram
field count 1
field mean 25.472
field stddev nan
field sum 25.472
field sqrsum 648.822784
field min 25.472
field max 25.472
attr interpolationmode  none
attr source  arrivalTime
attr title  "arrival time, histogram"
bin	-INF	0
bin	24.972	0
bin	25.005333333333	0
bin	25.038666666667	0
bin	25.072	0
bin	25.105333333333	0
bin	25.138666666667	0
bin	25.172	0
bin	25.205333333333	0
bin	25.238666666667	0
bin	25.272	0
bin	25.305333333333	0
bin	25.338666666667	0
bin	25.372	0
bin	25.405333333333	0
bin	25.438666666667	0
bin	25.472	1
bin	25.505333333333	0
bin	25.538666666667	0
bin	25.572	0
bin	25.605333333333	0
bin	25.638666666667	0
bin	25.672	0
bin	25.705333333333	0
bin	25.738666666667	0
bin	25.772	0
bin	25.805333333333	0
bin	25.838666666667	0
bin	25.872	0
bin	25.905333333333	0
bin	25.938666666667	0
bin	25.972	0
statistic RandomGeometricGraph.rgnv[54] 	arrivalPerc:histogram
field count 1
field mean 1
field stddev nan
field sum 1
field sqrsum 1
field min 1
field max 1
attr interpolationmode  none
attr source  count(arrival)
attr title  "arrival perc, histogram"
bin	-INF	0
bin	0	0
bin	1	1
bin	2	0
statistic RandomGeometricGraph.rgnv[55] 	arrivalTime:histogram
field count 1
field mean 101.647
field stddev nan
field sum 101.647
field sqrsum 10332.112609
field min 101.647
field max 101.647
attr interpolationmode  none
attr source  arrivalTime
attr title  "arrival time, histogram"
bin	-INF	0
bin	101.147	0
bin	101.18033333333	0
bin	101.21366666667	0
bin	101.247	0
bin	101.28033333333	0
bin	101.31366666667	0
bin	101.347	0
bin	101.38033333333	0
bin	101.41366666667	0
bin	101.447	0
bin	101.48033333333	0
bin	101.51366666667	0
bin	101.547	0
bin	101.58033333333	0
bin	101.61366666667	0
bin	101.647	1
bin	101.68033333333	0
bin	101.71366666667	0
bin	101.747	0
bin	101.78033333333	0
bin	101.81366666667	0
bin	101.847	0
bin	101.88033333333	0
bin	101.91366666667	0
bin	101.947	0
bin	101.98033333333	0
bin	102.01366666667	0
bin	102.047	0
bin	102.08033333333	0
bin	102.11366666667	0
bin	102.147	0
statistic RandomGeometricGraph.rgnv[55] 	arrivalPerc:histogram
field count 1
field mean 1
field stddev nan
field sum 1
field sqrsum 1
field min 1
field max 1
attr interpolationmode  none
attr source  count(arrival)
attr title  "arrival perc, histogram"
bin	-INF	0
bin	0	0
bin	1	1
bin	2	0
statistic RandomGeometricGraph.rgnv[56] 	arrivalTime:histogram
field count 1
field mean 91.647
field stddev nan
field sum 91.647
field sqrsum 8399.172609
field min 91.647
field max 91.647
attr interpolationmode  none
attr source  arrivalTime
attr title  "arrival time, histogram"
bin	-INF	0
bin	91.147	0
bin	91.180333333333	0
bin	91.213666666667	0
bin	91.247	0
bin	91.280333333333	0
bin	91.313666666667	0
bin	91.347	0
bin	91.380333333333	0
bin	91.413666666667	0
bin	91.447	0
bin	91.480333333333	0
bin	91.513666666667	0
bin	91.547	0
bin	91.580333333333	0
bin	91.613666666667	0
bin	91.647	1
bin	91.680333333333	0
bin	91.713666666667	0
bin	91.747	0
bin	91.780333333333	0
bin	91.813666666667	0
bin	91.847	0
bin	91.880333333333	0
bin	91.913666666667	0
bin	91.947	0
bin	91.980333333333	0
bin	92.013666666667	0
bin	92.047	0
bin	92.080333333333	0
bin	92.113666666667	0
bin	92.147	0
statistic RandomGeometricGraph.rgnv[56] 	arrivalPerc:histogram
field count 1
field mean 1
field stddev nan
field sum 1
field sqrsum 1
field min 1
field max 1
attr interpolationmode  none
attr source  count(arrival)
attr title  "arrival perc, histogram"
bin	-INF	0
bin	0	0
bin	1	1
bin	2	0
statistic RandomGeometricGraph.rgnv[57] 	arrivalTime:histogram
field count 1
field mean 49.934
field stddev nan
field sum 49.934
field sqrsum 2493.404356
field min 49.934
field max 49.934
attr interpolationmode  none
attr source  arrivalTime
attr title  "arrival time, histogram"
bin	-INF	0
bin	49.434	0
bin	49.467333333333	0
bin	49.500666666667	0
bin	49.534	0
bin	49.567333333333	0
bin	49.600666666667	0
bin	49.634	0
bin	49.667333333333	0
bin	49.700666666667	0
bin	49.734	0
bin	49.767333333333	0
bin	49.800666666667	0
bin	49.834	0
bin	49.867333333333	0
bin	49.900666666667	0
bin	49.934	1
bin	49.967333333333	0
bin	50.000666666667	0
bin	50.034	0
bin	50.067333333333	0
bin	50.100666666667	0
bin	50.134	0
bin	50.167333333333	0
bin	50.200666666667	0
bin	50.234	0
bin	50.267333333333	0
bin	50.300666666667	0
bin	50.334	0
bin	50.367333333333	0
bin	50.400666666667	0
bin	50.434	0
statistic RandomGeometricGraph.rgnv[57] 	arrivalPerc:histogram
field count 1
field mean 1
field stddev nan
field sum 1
field sqrsum 1
field min 1
field max 1
attr interpolationmode  none
attr source  count(arrival)
attr title  "arrival perc, histogram"
bin	-INF	0
bin	0	0
bin	1	1
bin	2	0
statistic RandomGeometricGraph.rgnv[58] 	arrivalTime:histogram
field count 1
field mean 121.099
field stddev nan
field sum 121.099
field sqrsum 14664.967801
field min 121.099
field max 121.099
attr interpolationmode  none
attr source  arrivalTime
attr title  "arrival time, histogram"
bin	-INF	0
bin	120.599	0
bin	120.63233333333	0
bin	120.66566666667	0
bin	120.699	0
bin	120.73233333333	0
bin	120.76566666667	0
bin	120.799	0
bin	120.83233333333	0
bin	120.86566666667	0
bin	120.899	0
bin	120.93233333333	0
bin	120.96566666667	0
bin	120.999	0
bin	121.03233333333	0
bin	121.06566666667	0
bin	121.099	1
bin	121.13233333333	0
bin	121.16566666667	0
bin	121.199	0
bin	121.23233333333	0
bin	121.26566666667	0
bin	121.299	0
bin	121.33233333333	0
bin	121.36566666667	0
bin	121.399	0
bin	121.43233333333	0
bin	121.46566666667	0
bin	121.499	0
bin	121.53233333333	0
bin	121.56566666667	0
bin	121.599	0
statistic RandomGeometricGraph.rgnv[58] 	arrivalPerc:histogram
field count 1
field mean 1
field stddev nan
field sum 1
field sqrsum 1
field min 1
field max 1
attr interpolationmode  none
attr source  count(arrival)
attr title  "arrival perc, histogram"
bin	-INF	0
bin	0	0
bin	1	1
bin	2	0
statistic RandomGeometricGraph.rgnv[59] 	arrivalTime:histogram
field count 1
field mean 37.703
field stddev nan
field sum 37.703
field sqrsum 1421.516209
field min 37.703
field max 37.703
attr interpolationmode  none
attr source  arrivalTime
attr title  "arrival time, histogram"
bin	-INF	0
bin	37.203	0
bin	37.236333333333	0
bin	37.269666666667	0
bin	37.303	0
bin	37.336333333333	0
bin	37.369666666667	0
bin	37.403	0
bin	37.436333333333	0
bin	37.469666666667	0
bin	37.503	0
bin	37.536333333333	0
bin	37.569666666667	0
bin	37.603	0
bin	37.636333333333	0
bin	37.669666666667	0
bin	37.703	1
bin	37.736333333333	0
bin	37.769666666667	0
bin	37.803	0
bin	37.836333333333	0
bin	37.869666666667	0
bin	37.903	0
bin	37.936333333333	0
bin	37.969666666667	0
bin	38.003	0
bin	38.036333333333	0
bin	38.069666666667	0
bin	38.103	0
bin	38.136333333333	0
bin	38.169666666667	0
bin	38.203	0
statistic RandomGeometricGraph.rgnv[59] 	arrivalPerc:histogram
field count 1
field mean 1
field stddev nan
field sum 1
field sqrsum 1
field min 1
field max 1
attr interpolationmode  none
attr source  count(arrival)
attr title  "arrival perc, histogram"
bin	-INF	0
bin	0	0
bin	1	1
bin	2	0
statistic RandomGeometricGraph.rgnv[60] 	arrivalTime:histogram
field count 1
field mean 103.868
field stddev nan
field sum 103.868
field sqrsum 10788.561424
field min 103.868
field max 103.868
attr interpolationmode  none
attr source  arrivalTime
attr title  "arrival time, histogram"
bin	-INF	0
bin	103.368	0
bin	103.40133333333	0
bin	103.43466666667	0
bin	103.468	0
bin	103.50133333333	0
bin	103.53466666667	0
bin	103.568	0
bin	103.60133333333	0
bin	103.63466666667	0
bin	103.668	0
bin	103.70133333333	0
bin	103.73466666667	0
bin	103.768	0
bin	103.80133333333	0
bin	103.83466666667	0
bin	103.868	1
bin	103.90133333333	0
bin	103.93466666667	0
bin	103.968	0
bin	104.00133333333	0
bin	104.03466666667	0
bin	104.068	0
bin	104.10133333333	0
bin	104.13466666667	0
bin	104.168	0
bin	104.20133333333	0
bin	104.23466666667	0
bin	104.268	0
bin	104.30133333333	0
bin	104.33466666667	0
bin	104.368	0
statistic RandomGeometricGraph.rgnv[60] 	arrivalPerc:histogram
field count 1
field mean 1
field stddev nan
field sum 1
field sqrsum 1
field min 1
field max 1
attr interpolationmode  none
attr source  count(arrival)
attr title  "arrival perc, histogram"
bin	-INF	0
bin	0	0
bin	1	1
bin	2	0
statistic RandomGeometricGraph.rgnv[61] 	arrivalTime:histogram
field count 1
field mean 54.954
field stddev nan
field sum 54.954
field sqrsum 3019.942116
field min 54.954
field max 54.954
attr interpolationmode  none
attr source  arrivalTime
attr title  "arrival time, histogram"
bin	-INF	0
bin	54.454	0
bin	54.487333333333	0
bin	54.520666666667	0
bin	54.554	0
bin	54.587333333333	0
bin	54.620666666667	0
bin	54.654	0
bin	54.687333333333	0
bin	54.720666666667	0
bin	54.754	0
bin	54.787333333333	0
bin	54.820666666667	0
bin	54.854	0
bin	54.887333333333	0
bin	54.920666666667	0
bin	54.954	1
bin	54.987333333333	0
bin	55.020666666667	0
bin	55.054	0
bin	55.087333333333	0
bin	55.120666666667	0
bin	55.154	0
bin	55.187333333333	0
bin	55.220666666667	0
bin	55.254	0
bin	55.287333333333	0
bin	55.320666666667	0
bin	55.354	0
bin	55.387333333333	0
bin	55.420666666667	0
bin	55.454	0
statistic RandomGeometricGraph.rgnv[61] 	arrivalPerc:histogram
field count 1
field mean 1
field stddev nan
field sum 1
field sqrsum 1
field min 1
field max 1
attr interpolationmode  none
attr source  count(arrival)
attr title  "arrival perc, histogram"
bin	-INF	0
bin	0	0
bin	1	1
bin	2	0
statistic RandomGeometricGraph.rgnv[62] 	arrivalTime:histogram
field count 1
field mean 42.713
field stddev nan
field sum 42.713
field sqrsum 1824.400369
field min 42.713
field max 42.713
attr interpolationmode  none
attr source  arrivalTime
attr title  "arrival time, histogram"
bin	-INF	0
bin	42.213	0
bin	42.246333333333	0
bin	42.279666666667	0
bin	42.313	0
bin	42.346333333333	0
bin	42.379666666667	0
bin	42.413	0
bin	42.446333333333	0
bin	42.479666666667	0
bin	42.513	0
bin	42.546333333333	0
bin	42.579666666667	0
bin	42.613	0
bin	42.646333333333	0
bin	42.679666666667	0
bin	42.713	1
bin	42.746333333333	0
bin	42.779666666667	0
bin	42.813	0
bin	42.846333333333	0
bin	42.879666666667	0
bin	42.913	0
bin	42.946333333333	0
bin	42.979666666667	0
bin	43.013	0
bin	43.046333333333	0
bin	43.079666666667	0
bin	43.113	0
bin	43.146333333333	0
bin	43.179666666667	0
bin	43.213	0
statistic RandomGeometricGraph.rgnv[62] 	arrivalPerc:histogram
field count 1
field mean 1
field stddev nan
field sum 1
field sqrsum 1
field min 1
field max 1
attr interpolationmode  none
attr source  count(arrival)
attr title  "arrival perc, histogram"
bin	-INF	0
bin	0	0
bin	1	1
bin	2	0
statistic RandomGeometricGraph.rgnv[63] 	arrivalTime:histogram
field count 1
field mean 86.627
field stddev nan
field sum 86.627
field sqrsum 7504.237129
field min 86.627
field max 86.627
attr interpolationmode  none
attr source  arrivalTime
attr title  "arrival time, histogram"
bin	-INF	0
bin	86.127	0
bin	86.160333333333	0
bin	86.193666666667	0
bin	86.227	0
bin	86.260333333333	0
bin	86.293666666667	0
bin	86.327	0
bin	86.360333333333	0
bin	86.393666666667	0
bin	86.427	0
bin	86.460333333333	0
bin	86.493666666667	0
bin	86.527	0
bin	86.560333333333	0
bin	86.593666666667	0
bin	86.627	1
bin	86.660333333333	0
bin	86.693666666667	0
bin	86.727	0
bin	86.760333333333	0
bin	86.793666666667	0
bin	86.827	0
bin	86.860333333333	0
bin	86.893666666667	0
bin	86.927	0
bin	86.960333333333	0
bin	86.993666666667	0
bin	87.027	0
bin	87.060333333333	0
bin	87.093666666667	0
bin	87.127	0
statistic RandomGeometricGraph.rgnv[63] 	arrivalPerc:histogram
field count 1
field mean 1
field stddev nan
field sum 1
field sqrsum 1
field min 1
field max 1
attr interpolationmode  none
attr source  count(arrival)
attr title  "arrival perc, histogram"
bin	-INF	0
bin	0	0
bin	1	1
bin	2	0
statistic RandomGeometricGraph.rgnv[64] 	arrivalTime:histogram
field count 1
field mean 54.944
field stddev nan
field sum 54.944
field sqrsum 3018.843136
field min 54.944
field max 54.944
attr interpolationmode  none
attr source  arrivalTime
attr title  "arrival time, histogram"
bin	-INF	0
bin	54.444	0
bin	54.477333333333	0
bin	54.510666666667	0
bin	54.544	0
bin	54.577333333333	0
bin	54.610666666667	0
bin	54.644	0
bin	54.677333333333	0
bin	54.710666666667	0
bin	54.744	0
bin	54.777333333333	0
bin	54.810666666667	0
bin	54.844	0
bin	54.877333333333	0
bin	54.910666666667	0
bin	54.944	1
bin	54.977333333333	0
bin	55.010666666667	0
bin	55.044	0
bin	55.077333333333	0
bin	55.110666666667	0
bin	55.144	0
bin	55.177333333333	0
bin	55.210666666667	0
bin	55.244	0
bin	55.277333333333	0
bin	55.310666666667	0
bin	55.344	0
bin	55.377333333333	0
bin	55.410666666667	0
bin	55.444	0
statistic RandomGeometricGraph.rgnv[64] 	arrivalPerc:histogram
field count 1
field mean 1
field stddev nan
field sum 1
field sqrsum 1
field min 1
field max 1
attr interpolationmode  none
attr source  count(arrival)
attr title  "arrival perc, histogram"
bin	-INF	0
bin	0	0
bin	1	1
bin	2	0
statistic RandomGeometricGraph.rgnv[65] 	arrivalTime:histogram
field count 1
field mean 126.119
field stddev nan
field sum 126.119
field sqrsum 15906.002161
field min 126.119
field max 126.119
attr interpolationmode  none
attr source  arrivalTime
attr title  "arrival time, histogram"
bin	-INF	0
bin	125.619	0
bin	125.65233333333	0
bin	125.68566666667	0
bin	125.719	0
bin	125.75233333333	0
bin	125.78566666667	0
bin	125.819	0
bin	125.85233333333	0
bin	125.88566666667	0
bin	125.919	0
bin	125.95233333333	0
bin	125.98566666667	0
bin	126.019	0
bin	126.05233333333	0
bin	126.08566666667	0
bin	126.119	1
bin	126.15233333333	0
bin	126.18566666667	0
bin	126.219	0
bin	126.25233333333	0
bin	126.28566666667	0
bin	126.319	0
bin	126.35233333333	0
bin	126.38566666667	0
bin	126.419	0
bin	126.45233333333	0
bin	126.48566666667	0
bin	126.519	0
bin	126.55233333333	0
bin	126.58566666667	0
bin	126.619	0
statistic RandomGeometricGraph.rgnv[65] 	arrivalPerc:histogram
field count 1
field mean 1
field stddev nan
field sum 1
field sqrsum 1
field min 1
field max 1
attr interpolationmode  none
attr source  count(arrival)
attr title  "arrival perc, histogram"
bin	-INF	0
bin	0	0
bin	1	1
bin	2	0
statistic RandomGeometricGraph.rgnv[66] 	arrivalTime:histogram
field count 1
field mean 62.175
field stddev nan
field sum 62.175
field sqrsum 3865.730625
field min 62.175
field max 62.175
attr interpolationmode  none
attr source  arrivalTime
attr title  "arrival time, histogram"
bin	-INF	0
bin	61.675	0
bin	61.708333333333	0
bin	61.741666666667	0
bin	61.775	0
bin	61.808333333333	0
bin	61.841666666667	0
bin	61.875	0
bin	61.908333333333	0
bin	61.941666666667	0
bin	61.975	0
bin	62.008333333333	0
bin	62.041666666667	0
bin	62.075	0
bin	62.108333333333	0
bin	62.141666666667	0
bin	62.175	1
bin	62.208333333333	0
bin	62.241666666667	0
bin	62.275	0
bin	62.308333333333	0
bin	62.341666666667	0
bin	62.375	0
bin	62.408333333333	0
bin	62.441666666667	0
bin	62.475	0
bin	62.508333333333	0
bin	62.541666666667	0
bin	62.575	0
bin	62.608333333333	0
bin	62.641666666667	0
bin	62.675	0
statistic RandomGeometricGraph.rgnv[66] 	arrivalPerc:histogram
field count 1
field mean 1
field stddev nan
field sum 1
field sqrsum 1
field min 1
field max 1
attr interpolationmode  none
attr source  count(arrival)
attr title  "arrival perc, histogram"
bin	-INF	0
bin	0	0
bin	1	1
bin	2	0
statistic RandomGeometricGraph.rgnv[67] 	arrivalTime:histogram
field count 1
field mean 140.551
field stddev nan
field sum 140.551
[...]
attr source  count(arrival)
attr title  "arrival perc, histogram"
bin	-INF	0
bin	0	0
bin	1	1
bin	2	0
statistic RandomGeometricGraph.rgnv[183] 	arrivalTime:histogram
field count 1
field mean 86.627
field stddev nan
field sum 86.627
field sqrsum 7504.237129
field min 86.627
field max 86.627
attr interpolationmode  none
attr source  arrivalTime
attr title  "arrival time, histogram"
bin	-INF	0
bin	86.127	0
bin	86.160333333333	0
bin	86.193666666667	0
bin	86.227	0
bin	86.260333333333	0
bin	86.293666666667	0
bin	86.327	0
bin	86.360333333333	0
bin	86.393666666667	0
bin	86.427	0
bin	86.460333333333	0
bin	86.493666666667	0
bin	86.527	0
bin	86.560333333333	0
bin	86.593666666667	0
bin	86.627	1
bin	86.660333333333	0
bin	86.693666666667	0
bin	86.727	0
bin	86.760333333333	0
bin	86.793666666667	0
bin	86.827	0
bin	86.860333333333	0
bin	86.893666666667	0
bin	86.927	0
bin	86.960333333333	0
bin	86.993666666667	0
bin	87.027	0
bin	87.060333333333	0
bin	87.093666666667	0
bin	87.127	0
statistic RandomGeometricGraph.rgnv[183] 	arrivalPerc:histogram
field count 1
field mean 1
field stddev nan
field sum 1
field sqrsum 1
field min 1
field max 1
attr interpolationmode  none
attr source  count(arrival)
attr title  "arrival perc, histogram"
bin	-INF	0
bin	0	0
bin	1	1
bin	2	0
statistic RandomGeometricGraph.rgnv[184] 	arrivalTime:histogram
field count 1
field mean 98.858
field stddev nan
field sum 98.858
field sqrsum 9772.904164
field min 98.858
field max 98.858
attr interpolationmode  none
attr source  arrivalTime
attr title  "arrival time, histogram"
bin	-INF	0
bin	98.358	0
bin	98.391333333333	0
bin	98.424666666667	0
bin	98.458	0
bin	98.491333333333	0
bin	98.524666666667	0
bin	98.558	0
bin	98.591333333333	0
bin	98.624666666667	0
bin	98.658	0
bin	98.691333333333	0
bin	98.724666666667	0
bin	98.758	0
bin	98.791333333333	0
bin	98.824666666667	0
bin	98.858	1
bin	98.891333333333	0
bin	98.924666666667	0
bin	98.958	0
bin	98.991333333333	0
bin	99.024666666667	0
bin	99.058	0
bin	99.091333333333	0
bin	99.124666666667	0
bin	99.158	0
bin	99.191333333333	0
bin	99.224666666667	0
bin	99.258	0
bin	99.291333333333	0
bin	99.324666666667	0
bin	99.358	0
statistic RandomGeometricGraph.rgnv[184] 	arrivalPerc:histogram
field count 1
field mean 1
field stddev nan
field sum 1
field sqrsum 1
field min 1
field max 1
attr interpolationmode  none
attr source  count(arrival)
attr title  "arrival perc, histogram"
bin	-INF	0
bin	0	0
bin	1	1
bin	2	0
statistic RandomGeometricGraph.rgnv[185] 	arrivalTime:histogram
field count 1
field mean 111.109
field stddev nan
field sum 111.109
field sqrsum 12345.209881
field min 111.109
field max 111.109
attr interpolationmode  none
attr source  arrivalTime
attr title  "arrival time, histogram"
bin	-INF	0
bin	110.609	0
bin	110.64233333333	0
bin	110.67566666667	0
bin	110.709	0
bin	110.74233333333	0
bin	110.77566666667	0
bin	110.809	0
bin	110.84233333333	0
bin	110.87566666667	0
bin	110.909	0
bin	110.94233333333	0
bin	110.97566666667	0
bin	111.009	0
bin	111.04233333333	0
bin	111.07566666667	0
bin	111.109	1
bin	111.14233333333	0
bin	111.17566666667	0
bin	111.209	0
bin	111.24233333333	0
bin	111.27566666667	0
bin	111.309	0
bin	111.34233333333	0
bin	111.37566666667	0
bin	111.409	0
bin	111.44233333333	0
bin	111.47566666667	0
bin	111.509	0
bin	111.54233333333	0
bin	111.57566666667	0
bin	111.609	0
statistic RandomGeometricGraph.rgnv[185] 	arrivalPerc:histogram
field count 1
field mean 1
field stddev nan
field sum 1
field sqrsum 1
field min 1
field max 1
attr interpolationmode  none
attr source  count(arrival)
attr title  "arrival perc, histogram"
bin	-INF	0
bin	0	0
bin	1	1
bin	2	0
statistic RandomGeometricGraph.rgnv[186] 	arrivalTime:histogram
field count 1
field mean 123.34
field stddev nan
field sum 123.34
field sqrsum 15212.7556
field min 123.34
field max 123.34
attr interpolationmode  none
attr source  arrivalTime
attr title  "arrival time, histogram"
bin	-INF	0
bin	122.84	0
bin	122.87333333333	0
bin	122.90666666667	0
bin	122.94	0
bin	122.97333333333	0
bin	123.00666666667	0
bin	123.04	0
bin	123.07333333333	0
bin	123.10666666667	0
bin	123.14	0
bin	123.17333333333	0
bin	123.20666666667	0
bin	123.24	0
bin	123.27333333333	0
bin	123.30666666667	0
bin	123.34	1
bin	123.37333333333	0
bin	123.40666666667	0
bin	123.44	0
bin	123.47333333333	0
bin	123.50666666667	0
bin	123.54	0
bin	123.57333333333	0
bin	123.60666666667	0
bin	123.64	0
bin	123.67333333333	0
bin	123.70666666667	0
bin	123.74	0
bin	123.77333333333	0
bin	123.80666666667	0
bin	123.84	0
statistic RandomGeometricGraph.rgnv[186] 	arrivalPerc:histogram
field count 1
field mean 1
field stddev nan
field sum 1
field sqrsum 1
field min 1
field max 1
attr interpolationmode  none
attr source  count(arrival)
attr title  "arrival perc, histogram"
bin	-INF	0
bin	0	0
bin	1	1
bin	2	0
statistic RandomGeometricGraph.rgnv[187] 	arrivalTime:histogram
field count 1
field mean 108.878
field stddev nan
field sum 108.878
field sqrsum 11854.418884
field min 108.878
field max 108.878
attr interpolationmode  none
attr source  arrivalTime
attr title  "arrival time, histogram"
bin	-INF	0
bin	108.378	0
bin	108.41133333333	0
bin	108.44466666667	0
bin	108.478	0
bin	108.51133333333	0
bin	108.54466666667	0
bin	108.578	0
bin	108.61133333333	0
bin	108.64466666667	0
bin	108.678	0
bin	108.71133333333	0
bin	108.74466666667	0
bin	108.778	0
bin	108.81133333333	0
bin	108.84466666667	0
bin	108.878	1
bin	108.91133333333	0
bin	108.94466666667	0
bin	108.978	0
bin	109.01133333333	0
bin	109.04466666667	0
bin	109.078	0
bin	109.11133333333	0
bin	109.14466666667	0
bin	109.178	0
bin	109.21133333333	0
bin	109.24466666667	0
bin	109.278	0
bin	109.31133333333	0
bin	109.34466666667	0
bin	109.378	0
statistic RandomGeometricGraph.rgnv[187] 	arrivalPerc:histogram
field count 1
field mean 1
field stddev nan
field sum 1
field sqrsum 1
field min 1
field max 1
attr interpolationmode  none
attr source  count(arrival)
attr title  "arrival perc, histogram"
bin	-INF	0
bin	0	0
bin	1	1
bin	2	0
statistic RandomGeometricGraph.rgnv[188] 	arrivalTime:histogram
field count 1
field mean 67.185
field stddev nan
field sum 67.185
field sqrsum 4513.824225
field min 67.185
field max 67.185
attr interpolationmode  none
attr source  arrivalTime
attr title  "arrival time, histogram"
bin	-INF	0
bin	66.685	0
bin	66.718333333333	0
bin	66.751666666667	0
bin	66.785	0
bin	66.818333333333	0
bin	66.851666666667	0
bin	66.885	0
bin	66.918333333333	0
bin	66.951666666667	0
bin	66.985	0
bin	67.018333333333	0
bin	67.051666666667	0
bin	67.085	0
bin	67.118333333333	0
bin	67.151666666667	0
bin	67.185	1
bin	67.218333333333	0
bin	67.251666666667	0
bin	67.285	0
bin	67.318333333333	0
bin	67.351666666667	0
bin	67.385	0
bin	67.418333333333	0
bin	67.451666666667	0
bin	67.485	0
bin	67.518333333333	0
bin	67.551666666667	0
bin	67.585	0
bin	67.618333333333	0
bin	67.651666666667	0
bin	67.685	0
statistic RandomGeometricGraph.rgnv[188] 	arrivalPerc:histogram
field count 1
field mean 1
field stddev nan
field sum 1
field sqrsum 1
field min 1
field max 1
attr interpolationmode  none
attr source  count(arrival)
attr title  "arrival perc, histogram"
bin	-INF	0
bin	0	0
bin	1	1
bin	2	0
statistic RandomGeometricGraph.rgnv[189] 	arrivalTime:histogram
field count 1
field mean 74.386
field stddev nan
field sum 74.386
field sqrsum 5533.276996
field min 74.386
field max 74.386
attr interpolationmode  none
attr source  arrivalTime
attr title  "arrival time, histogram"
bin	-INF	0
bin	73.886	0
bin	73.919333333333	0
bin	73.952666666667	0
bin	73.986	0
bin	74.019333333333	0
bin	74.052666666667	0
bin	74.086	0
bin	74.119333333333	0
bin	74.152666666667	0
bin	74.186	0
bin	74.219333333333	0
bin	74.252666666667	0
bin	74.286	0
bin	74.319333333333	0
bin	74.352666666667	0
bin	74.386	1
bin	74.419333333333	0
bin	74.452666666667	0
bin	74.486	0
bin	74.519333333333	0
bin	74.552666666667	0
bin	74.586	0
bin	74.619333333333	0
bin	74.652666666667	0
bin	74.686	0
bin	74.719333333333	0
bin	74.752666666667	0
bin	74.786	0
bin	74.819333333333	0
bin	74.852666666667	0
bin	74.886	0
statistic RandomGeometricGraph.rgnv[189] 	arrivalPerc:histogram
field count 1
field mean 1
field stddev nan
field sum 1
field sqrsum 1
field min 1
field max 1
attr interpolationmode  none
attr source  count(arrival)
attr title  "arrival perc, histogram"
bin	-INF	0
bin	0	0
bin	1	1
bin	2	0
statistic RandomGeometricGraph.rgnv[190] 	arrivalTime:histogram
field count 1
field mean 74.416
field stddev nan
field sum 74.416
field sqrsum 5537.741056
field min 74.416
field max 74.416
attr interpolationmode  none
attr source  arrivalTime
attr title  "arrival time, histogram"
bin	-INF	0
bin	73.916	0
bin	73.949333333333	0
bin	73.982666666667	0
bin	74.016	0
bin	74.049333333333	0
bin	74.082666666667	0
bin	74.116	0
bin	74.149333333333	0
bin	74.182666666667	0
bin	74.216	0
bin	74.249333333333	0
bin	74.282666666667	0
bin	74.316	0
bin	74.349333333333	0
bin	74.382666666667	0
bin	74.416	1
bin	74.449333333333	0
bin	74.482666666667	0
bin	74.516	0
bin	74.549333333333	0
bin	74.582666666667	0
bin	74.616	0
bin	74.649333333333	0
bin	74.682666666667	0
bin	74.716	0
bin	74.749333333333	0
bin	74.782666666667	0
bin	74.816	0
bin	74.849333333333	0
bin	74.882666666667	0
bin	74.916	0
statistic RandomGeometricGraph.rgnv[190] 	arrivalPerc:histogram
field count 1
field mean 1
field stddev nan
field sum 1
field sqrsum 1
field min 1
field max 1
attr interpolationmode  none
attr source  count(arrival)
attr title  "arrival perc, histogram"
bin	-INF	0
bin	0	0
bin	1	1
bin	2	0
statistic RandomGeometricGraph.rgnv[191] 	arrivalTime:histogram
field count 1
field mean 121.109
field stddev nan
field sum 121.109
field sqrsum 14667.389881
field min 121.109
field max 121.109
attr interpolationmode  none
attr source  arrivalTime
attr title  "arrival time, histogram"
bin	-INF	0
bin	120.609	0
bin	120.64233333333	0
bin	120.67566666667	0
bin	120.709	0
bin	120.74233333333	0
bin	120.77566666667	0
bin	120.809	0
bin	120.84233333333	0
bin	120.87566666667	0
bin	120.909	0
bin	120.94233333333	0
bin	120.97566666667	0
bin	121.009	0
bin	121.04233333333	0
bin	121.07566666667	0
bin	121.109	1
bin	121.14233333333	0
bin	121.17566666667	0
bin	121.209	0
bin	121.24233333333	0
bin	121.27566666667	0
bin	121.309	0
bin	121.34233333333	0
bin	121.37566666667	0
bin	121.409	0
bin	121.44233333333	0
bin	121.47566666667	0
bin	121.509	0
bin	121.54233333333	0
bin	121.57566666667	0
bin	121.609	0
statistic RandomGeometricGraph.rgnv[191] 	arrivalPerc:histogram
field count 1
field mean 1
field stddev nan
field sum 1
field sqrsum 1
field min 1
field max 1
attr interpolationmode  none
attr source  count(arrival)
attr title  "arrival perc, histogram"
bin	-INF	0
bin	0	0
bin	1	1
bin	2	0
statistic RandomGeometricGraph.rgnv[192] 	arrivalTime:histogram
field count 1
field mean 13.231
field stddev nan
field sum 13.231
field sqrsum 175.059361
field min 13.231
field max 13.231
attr interpolationmode  none
attr source  arrivalTime
attr title  "arrival time, histogram"
bin	-INF	0
bin	12.731	0
bin	12.764333333333	0
bin	12.797666666667	0
bin	12.831	0
bin	12.864333333333	0
bin	12.897666666667	0
bin	12.931	0
bin	12.964333333333	0
bin	12.997666666667	0
bin	13.031	0
bin	13.064333333333	0
bin	13.097666666667	0
bin	13.131	0
bin	13.164333333333	0
bin	13.197666666667	0
bin	13.231	1
bin	13.264333333333	0
bin	13.297666666667	0
bin	13.331	0
bin	13.364333333333	0
bin	13.397666666667	0
bin	13.431	0
bin	13.464333333333	0
bin	13.497666666667	0
bin	13.531	0
bin	13.564333333333	0
bin	13.597666666667	0
bin	13.631	0
bin	13.664333333333	0
bin	13.697666666667	0
bin	13.731	0
statistic RandomGeometricGraph.rgnv[192] 	arrivalPerc:histogram
field count 1
field mean 1
field stddev nan
field sum 1
field sqrsum 1
field min 1
field max 1
attr interpolationmode  none
attr source  count(arrival)
attr title  "arrival perc, histogram"
bin	-INF	0
bin	0	0
bin	1	1
bin	2	0
statistic RandomGeometricGraph.rgnv[193] 	arrivalTime:histogram
field count 1
field mean 91.637
field stddev nan
field sum 91.637
field sqrsum 8397.339769
field min 91.637
field max 91.637
attr interpolationmode  none
attr source  arrivalTime
attr title  "arrival time, histogram"
bin	-INF	0
bin	91.137	0
bin	91.170333333333	0
bin	91.203666666667	0
bin	91.237	0
bin	91.270333333333	0
bin	91.303666666667	0
bin	91.337	0
bin	91.370333333333	0
bin	91.403666666667	0
bin	91.437	0
bin	91.470333333333	0
bin	91.503666666667	0
bin	91.537	0
bin	91.570333333333	0
bin	91.603666666667	0
bin	91.637	1
bin	91.670333333333	0
bin	91.703666666667	0
bin	91.737	0
bin	91.770333333333	0
bin	91.803666666667	0
bin	91.837	0
bin	91.870333333333	0
bin	91.903666666667	0
bin	91.937	0
bin	91.970333333333	0
bin	92.003666666667	0
bin	92.037	0
bin	92.070333333333	0
bin	92.103666666667	0
bin	92.137	0
statistic RandomGeometricGraph.rgnv[193] 	arrivalPerc:histogram
field count 1
field mean 1
field stddev nan
field sum 1
field sqrsum 1
field min 1
field max 1
attr interpolationmode  none
attr source  count(arrival)
attr title  "arrival perc, histogram"
bin	-INF	0
bin	0	0
bin	1	1
bin	2	0
statistic RandomGeometricGraph.rgnv[194] 	arrivalTime:histogram
field count 1
field mean 91.647
field stddev nan
field sum 91.647
field sqrsum 8399.172609
field min 91.647
field max 91.647
attr interpolationmode  none
attr source  arrivalTime
attr title  "arrival time, histogram"
bin	-INF	0
bin	91.147	0
bin	91.180333333333	0
bin	91.213666666667	0
bin	91.247	0
bin	91.280333333333	0
bin	91.313666666667	0
bin	91.347	0
bin	91.380333333333	0
bin	91.413666666667	0
bin	91.447	0
bin	91.480333333333	0
bin	91.513666666667	0
bin	91.547	0
bin	91.580333333333	0
bin	91.613666666667	0
bin	91.647	1
bin	91.680333333333	0
bin	91.713666666667	0
bin	91.747	0
bin	91.780333333333	0
bin	91.813666666667	0
bin	91.847	0
bin	91.880333333333	0
bin	91.913666666667	0
bin	91.947	0
bin	91.980333333333	0
bin	92.013666666667	0
bin	92.047	0
bin	92.080333333333	0
bin	92.113666666667	0
bin	92.147	0
statistic RandomGeometricGraph.rgnv[194] 	arrivalPerc:histogram
field count 1
field mean 1
field stddev nan
field sum 1
field sqrsum 1
field min 1
field max 1
attr interpolationmode  none
attr source  count(arrival)
attr title  "arrival perc, histogram"
bin	-INF	0
bin	0	0
bin	1	1
bin	2	0
statistic RandomGeometricGraph.rgnv[195] 	arrivalTime:histogram
field count 1
field mean 108.888
field stddev nan
field sum 108.888
field sqrsum 11856.596544
field min 108.888
field max 108.888
attr interpolationmode  none
attr source  arrivalTime
attr title  "arrival time, histogram"
bin	-INF	0
bin	108.388	0
bin	108.42133333333	0
bin	108.45466666667	0
bin	108.488	0
bin	108.52133333333	0
bin	108.55466666667	0
bin	108.588	0
bin	108.62133333333	0
bin	108.65466666667	0
bin	108.688	0
bin	108.72133333333	0
bin	108.75466666667	0
bin	108.788	0
bin	108.82133333333	0
bin	108.85466666667	0
bin	108.888	1
bin	108.92133333333	0
bin	108.95466666667	0
bin	108.988	0
bin	109.02133333333	0
bin	109.05466666667	0
bin	109.088	0
bin	109.12133333333	0
bin	109.15466666667	0
bin	109.188	0
bin	109.22133333333	0
bin	109.25466666667	0
bin	109.288	0
bin	109.32133333333	0
bin	109.35466666667	0
bin	109.388	0
statistic RandomGeometricGraph.rgnv[195] 	arrivalPerc:histogram
field count 1
field mean 1
field stddev nan
field sum 1
field sqrsum 1
field min 1
field max 1
attr interpolationmode  none
attr source  count(arrival)
attr title  "arrival perc, histogram"
bin	-INF	0
bin	0	0
bin	1	1
bin	2	0
statistic RandomGeometricGraph.rgnv[196] 	arrivalTime:histogram
field count 1
field mean 128.33
field stddev nan
field sum 128.33
field sqrsum 16468.5889
field min 128.33
field max 128.33
attr interpolationmode  none
attr source  arrivalTime
attr title  "arrival time, histogram"
bin	-INF	0
bin	127.83	0
bin	127.86333333333	0
bin	127.89666666667	0
bin	127.93	0
bin	127.96333333333	0
bin	127.99666666667	0
bin	128.03	0
bin	128.06333333333	0
bin	128.09666666667	0
bin	128.13	0
bin	128.16333333333	0
bin	128.19666666667	0
bin	128.23	0
bin	128.26333333333	0
bin	128.29666666667	0
bin	128.33	1
bin	128.36333333333	0
bin	128.39666666667	0
bin	128.43	0
bin	128.46333333333	0
bin	128.49666666667	0
bin	128.53	0
bin	128.56333333333	0
bin	128.59666666667	0
bin	128.63	0
bin	128.66333333333	0
bin	128.69666666667	0
bin	128.73	0
bin	128.76333333333	0
bin	128.79666666667	0
bin	128.83	0
statistic RandomGeometricGraph.rgnv[196] 	arrivalPerc:histogram
field count 1
field mean 1
field stddev nan
field sum 1
field sqrsum 1
field min 1
field max 1
attr interpolationmode  none
attr source  count(arrival)
attr title  "arrival perc, histogram"
bin	-INF	0
bin	0	0
bin	1	1
bin	2	0
statistic RandomGeometricGraph.rgnv[197] 	arrivalTime:histogram
field count 1
field mean 108.878
field stddev nan
field sum 108.878
field sqrsum 11854.418884
field min 108.878
field max 108.878
attr interpolationmode  none
attr source  arrivalTime
attr title  "arrival time, histogram"
bin	-INF	0
bin	108.378	0
bin	108.41133333333	0
bin	108.44466666667	0
bin	108.478	0
bin	108.51133333333	0
bin	108.54466666667	0
bin	108.578	0
bin	108.61133333333	0
bin	108.64466666667	0
bin	108.678	0
bin	108.71133333333	0
bin	108.74466666667	0
bin	108.778	0
bin	108.81133333333	0
bin	108.84466666667	0
bin	108.878	1
bin	108.91133333333	0
bin	108.94466666667	0
bin	108.978	0
bin	109.01133333333	0
bin	109.04466666667	0
bin	109.078	0
bin	109.11133333333	0
bin	109.14466666667	0
bin	109.178	0
bin	109.21133333333	0
bin	109.24466666667	0
bin	109.278	0
bin	109.31133333333	0
bin	109.34466666667	0
bin	109.378	0
statistic RandomGeometricGraph.rgnv[197] 	arrivalPerc:histogram
field count 1
field mean 1
field stddev nan
field sum 1
field sqrsum 1
field min 1
field max 1
attr interpolationmode  none
attr source  count(arrival)
attr title  "arrival perc, histogram"
bin	-INF	0
bin	0	0
bin	1	1
bin	2	0
statistic RandomGeometricGraph.rgnv[198] 	arrivalTime:histogram
field count 1
field mean 103.858
field stddev nan
field sum 103.858
field sqrsum 10786.484164
field min 103.858
field max 103.858
attr interpolationmode  none
attr source  arrivalTime
attr title  "arrival time, histogram"
bin	-INF	0
bin	103.358	0
bin	103.39133333333	0
bin	103.42466666667	0
bin	103.458	0
bin	103.49133333333	0
bin	103.52466666667	0
bin	103.558	0
bin	103.59133333333	0
bin	103.62466666667	0
bin	103.658	0
bin	103.69133333333	0
bin	103.72466666667	0
bin	103.758	0
bin	103.79133333333	0
bin	103.82466666667	0
bin	103.858	1
bin	103.89133333333	0
bin	103.92466666667	0
bin	103.958	0
bin	103.99133333333	0
bin	104.02466666667	0
bin	104.058	0
bin	104.09133333333	0
bin	104.12466666667	0
bin	104.158	0
bin	104.19133333333	0
bin	104.22466666667	0
bin	104.258	0
bin	104.29133333333	0
bin	104.32466666667	0
bin	104.358	0
statistic RandomGeometricGraph.rgnv[198] 	arrivalPerc:histogram
field count 1
field mean 1
field stddev nan
field sum 1
field sqrsum 1
field min 1
field max 1
attr interpolationmode  none
attr source  count(arrival)
attr title  "arrival perc, histogram"
bin	-INF	0
bin	0	0
bin	1	1
bin	2	0
statistic RandomGeometricGraph.rgnv[199] 	arrivalTime:histogram
field count 1
field mean 103.878
field stddev nan
field sum 103.878
field sqrsum 10790.638884
field min 103.878
field max 103.878
attr interpolationmode  none
attr source  arrivalTime
attr title  "arrival time, histogram"
bin	-INF	0
bin	103.378	0
bin	103.41133333333	0
bin	103.44466666667	0
bin	103.478	0
bin	103.51133333333	0
bin	103.54466666667	0
bin	103.578	0
bin	103.61133333333	0
bin	103.64466666667	0
bin	103.678	0
bin	103.71133333333	0
bin	103.74466666667	0
bin	103.778	0
bin	103.81133333333	0
bin	103.84466666667	0
bin	103.878	1
bin	103.91133333333	0
bin	103.94466666667	0
bin	103.978	0
bin	104.01133333333	0
bin	104.04466666667	0
bin	104.078	0
bin	104.11133333333	0
bin	104.14466666667	0
bin	104.178	0
bin	104.21133333333	0
bin	104.24466666667	0
bin	104.278	0
bin	104.31133333333	0
bin	104.34466666667	0
bin	104.378	0
statistic RandomGeometricGraph.rgnv[199] 	arrivalPerc:histogram
field count 1
field mean 1
field stddev nan
field sum 1
field sqrsum 1
field min 1
field max 1
attr interpolationmode  none
attr source  count(arrival)
attr title  "arrival perc, histogram"
bin	-INF	0
bin	0	0
bin	1	1
bin	2	0
