version 2
run rgg50-0-20170110-16:23:07-3880
attr configname rgg50
attr datetime 20170110-16:23:07
attr experiment rgg50
attr inifile iniFile/D001/omnetpp_15D001.ini
attr iterationvars ""
attr iterationvars2 $repetition=0
attr measurement ""
attr network blegossipprj.net.randomgeometricgraph.RandomGeometricGraph
attr processid 3880
attr repetition 0
attr replication #0
attr resultdir ../../results/D001/r15D001
attr runnumber 0
attr seedset 0
param RandomGeometricGraph.netSize 50
param RandomGeometricGraph.radius 15
param RandomGeometricGraph.rgnv[*].areaLength 71
param RandomGeometricGraph.rgnv[*].areaWidth 71

statistic RandomGeometricGraph.sc 	arrivalPercentage
field count 49
field mean 1
field stddev 0
field sum 49
field sqrsum 49
field min 1
field max 1
bin	-INF	0
bin	0	0
bin	1	49
bin	2	0
statistic RandomGeometricGraph.sc 	arrivalTime
field count 49
field mean 70.49687755102
field stddev 25.141749691858
field sum 3454.347
field sqrsum 273861.841201
field min 0
field max 111.099
bin	-INF	0
bin	-55.5495	0
bin	-48.1429	0
bin	-40.7363	0
bin	-33.3297	0
bin	-25.9231	0
bin	-18.5165	0
bin	-11.1099	0
bin	-3.7033	1
bin	3.7033	0
bin	11.1099	1
bin	18.5165	2
bin	25.9231	0
bin	33.3297	3
bin	40.7363	0
bin	48.1429	6
bin	55.5495	5
bin	62.9561	3
bin	70.3627	8
bin	77.7693	3
bin	85.1759	8
bin	92.5825	6
bin	99.9891	1
bin	107.3957	2
bin	114.8023	0
bin	122.2089	0
bin	129.6155	0
bin	137.0221	0
bin	144.4287	0
bin	151.8353	0
bin	159.2419	0
bin	166.6485	0
statistic RandomGeometricGraph.rgnv[0] 	arrivalTime:histogram
field count 1
field mean 37.703
field stddev nan
field sum 37.703
field sqrsum 1421.516209
field min 37.703
field max 37.703
attr interpolationmode  none
attr source  arrivalTime
attr title  "arrival time, histogram"
bin	-INF	0
bin	37.203	0
bin	37.236333333333	0
bin	37.269666666667	0
bin	37.303	0
bin	37.336333333333	0
bin	37.369666666667	0
bin	37.403	0
bin	37.436333333333	0
bin	37.469666666667	0
bin	37.503	0
bin	37.536333333333	0
bin	37.569666666667	0
bin	37.603	0
bin	37.636333333333	0
bin	37.669666666667	0
bin	37.703	1
bin	37.736333333333	0
bin	37.769666666667	0
bin	37.803	0
bin	37.836333333333	0
bin	37.869666666667	0
bin	37.903	0
bin	37.936333333333	0
bin	37.969666666667	0
bin	38.003	0
bin	38.036333333333	0
bin	38.069666666667	0
bin	38.103	0
bin	38.136333333333	0
bin	38.169666666667	0
bin	38.203	0
statistic RandomGeometricGraph.rgnv[0] 	arrivalPerc:histogram
field count 1
field mean 1
field stddev nan
field sum 1
field sqrsum 1
field min 1
field max 1
attr interpolationmode  none
attr source  count(arrival)
attr title  "arrival perc, histogram"
bin	-INF	0
bin	0	0
bin	1	1
bin	2	0
statistic RandomGeometricGraph.rgnv[1] 	arrivalTime:histogram
field count 1
field mean 25.472
field stddev nan
field sum 25.472
field sqrsum 648.822784
field min 25.472
field max 25.472
attr interpolationmode  none
attr source  arrivalTime
attr title  "arrival time, histogram"
bin	-INF	0
bin	24.972	0
bin	25.005333333333	0
bin	25.038666666667	0
bin	25.072	0
bin	25.105333333333	0
bin	25.138666666667	0
bin	25.172	0
bin	25.205333333333	0
bin	25.238666666667	0
bin	25.272	0
bin	25.305333333333	0
bin	25.338666666667	0
bin	25.372	0
bin	25.405333333333	0
bin	25.438666666667	0
bin	25.472	1
bin	25.505333333333	0
bin	25.538666666667	0
bin	25.572	0
bin	25.605333333333	0
bin	25.638666666667	0
bin	25.672	0
bin	25.705333333333	0
bin	25.738666666667	0
bin	25.772	0
bin	25.805333333333	0
bin	25.838666666667	0
bin	25.872	0
bin	25.905333333333	0
bin	25.938666666667	0
bin	25.972	0
statistic RandomGeometricGraph.rgnv[1] 	arrivalPerc:histogram
field count 1
field mean 1
field stddev nan
field sum 1
field sqrsum 1
field min 1
field max 1
attr interpolationmode  none
attr source  count(arrival)
attr title  "arrival perc, histogram"
bin	-INF	0
bin	0	0
bin	1	1
bin	2	0
statistic RandomGeometricGraph.rgnv[2] 	arrivalTime:histogram
field count 1
field mean 37.703
field stddev nan
field sum 37.703
field sqrsum 1421.516209
field min 37.703
field max 37.703
attr interpolationmode  none
attr source  arrivalTime
attr title  "arrival time, histogram"
bin	-INF	0
bin	37.203	0
bin	37.236333333333	0
bin	37.269666666667	0
bin	37.303	0
bin	37.336333333333	0
bin	37.369666666667	0
bin	37.403	0
bin	37.436333333333	0
bin	37.469666666667	0
bin	37.503	0
bin	37.536333333333	0
bin	37.569666666667	0
bin	37.603	0
bin	37.636333333333	0
bin	37.669666666667	0
bin	37.703	1
bin	37.736333333333	0
bin	37.769666666667	0
bin	37.803	0
bin	37.836333333333	0
bin	37.869666666667	0
bin	37.903	0
bin	37.936333333333	0
bin	37.969666666667	0
bin	38.003	0
bin	38.036333333333	0
bin	38.069666666667	0
bin	38.103	0
bin	38.136333333333	0
bin	38.169666666667	0
bin	38.203	0
statistic RandomGeometricGraph.rgnv[2] 	arrivalPerc:histogram
field count 1
field mean 1
field stddev nan
field sum 1
field sqrsum 1
field min 1
field max 1
attr interpolationmode  none
attr source  count(arrival)
attr title  "arrival perc, histogram"
bin	-INF	0
bin	0	0
bin	1	1
bin	2	0
statistic RandomGeometricGraph.rgnv[3] 	arrivalTime:histogram
field count 1
field mean 67.175
field stddev nan
field sum 67.175
field sqrsum 4512.480625
field min 67.175
field max 67.175
attr interpolationmode  none
attr source  arrivalTime
attr title  "arrival time, histogram"
bin	-INF	0
bin	66.675	0
bin	66.708333333333	0
bin	66.741666666667	0
bin	66.775	0
bin	66.808333333333	0
bin	66.841666666667	0
bin	66.875	0
bin	66.908333333333	0
bin	66.941666666667	0
bin	66.975	0
bin	67.008333333333	0
bin	67.041666666667	0
bin	67.075	0
bin	67.108333333333	0
bin	67.141666666667	0
bin	67.175	1
bin	67.208333333333	0
bin	67.241666666667	0
bin	67.275	0
bin	67.308333333333	0
bin	67.341666666667	0
bin	67.375	0
bin	67.408333333333	0
bin	67.441666666667	0
bin	67.475	0
bin	67.508333333333	0
bin	67.541666666667	0
bin	67.575	0
bin	67.608333333333	0
bin	67.641666666667	0
bin	67.675	0
statistic RandomGeometricGraph.rgnv[3] 	arrivalPerc:histogram
field count 1
field mean 1
field stddev nan
field sum 1
field sqrsum 1
field min 1
field max 1
attr interpolationmode  none
attr source  count(arrival)
attr title  "arrival perc, histogram"
bin	-INF	0
bin	0	0
bin	1	1
bin	2	0
statistic RandomGeometricGraph.rgnv[4] 	arrivalTime:histogram
field count 1
field mean 13.231
field stddev nan
field sum 13.231
field sqrsum 175.059361
field min 13.231
field max 13.231
attr interpolationmode  none
attr source  arrivalTime
attr title  "arrival time, histogram"
bin	-INF	0
bin	12.731	0
bin	12.764333333333	0
bin	12.797666666667	0
bin	12.831	0
bin	12.864333333333	0
bin	12.897666666667	0
bin	12.931	0
bin	12.964333333333	0
bin	12.997666666667	0
bin	13.031	0
bin	13.064333333333	0
bin	13.097666666667	0
bin	13.131	0
bin	13.164333333333	0
bin	13.197666666667	0
bin	13.231	1
bin	13.264333333333	0
bin	13.297666666667	0
bin	13.331	0
bin	13.364333333333	0
bin	13.397666666667	0
bin	13.431	0
bin	13.464333333333	0
bin	13.497666666667	0
bin	13.531	0
bin	13.564333333333	0
bin	13.597666666667	0
bin	13.631	0
bin	13.664333333333	0
bin	13.697666666667	0
bin	13.731	0
statistic RandomGeometricGraph.rgnv[4] 	arrivalPerc:histogram
field count 1
field mean 1
field stddev nan
field sum 1
field sqrsum 1
field min 1
field max 1
attr interpolationmode  none
attr source  count(arrival)
attr title  "arrival perc, histogram"
bin	-INF	0
bin	0	0
bin	1	1
bin	2	0
statistic RandomGeometricGraph.rgnv[5] 	arrivalTime:histogram
field count 1
field mean 91.647
field stddev nan
field sum 91.647
field sqrsum 8399.172609
field min 91.647
field max 91.647
attr interpolationmode  none
attr source  arrivalTime
attr title  "arrival time, histogram"
bin	-INF	0
bin	91.147	0
bin	91.180333333333	0
bin	91.213666666667	0
bin	91.247	0
bin	91.280333333333	0
bin	91.313666666667	0
bin	91.347	0
bin	91.380333333333	0
bin	91.413666666667	0
bin	91.447	0
bin	91.480333333333	0
bin	91.513666666667	0
bin	91.547	0
bin	91.580333333333	0
bin	91.613666666667	0
bin	91.647	1
bin	91.680333333333	0
bin	91.713666666667	0
bin	91.747	0
bin	91.780333333333	0
bin	91.813666666667	0
bin	91.847	0
bin	91.880333333333	0
bin	91.913666666667	0
bin	91.947	0
bin	91.980333333333	0
bin	92.013666666667	0
bin	92.047	0
bin	92.080333333333	0
bin	92.113666666667	0
bin	92.147	0
statistic RandomGeometricGraph.rgnv[5] 	arrivalPerc:histogram
field count 1
field mean 1
field stddev nan
field sum 1
field sqrsum 1
field min 1
field max 1
attr interpolationmode  none
attr source  count(arrival)
attr title  "arrival perc, histogram"
bin	-INF	0
bin	0	0
bin	1	1
bin	2	0
statistic RandomGeometricGraph.rgnv[6] 	arrivalTime:histogram
field count 1
field mean 74.396
field stddev nan
field sum 74.396
field sqrsum 5534.764816
field min 74.396
field max 74.396
attr interpolationmode  none
attr source  arrivalTime
attr title  "arrival time, histogram"
bin	-INF	0
bin	73.896	0
bin	73.929333333333	0
bin	73.962666666667	0
bin	73.996	0
bin	74.029333333333	0
bin	74.062666666667	0
bin	74.096	0
bin	74.129333333333	0
bin	74.162666666667	0
bin	74.196	0
bin	74.229333333333	0
bin	74.262666666667	0
bin	74.296	0
bin	74.329333333333	0
bin	74.362666666667	0
bin	74.396	1
bin	74.429333333333	0
bin	74.462666666667	0
bin	74.496	0
bin	74.529333333333	0
bin	74.562666666667	0
bin	74.596	0
bin	74.629333333333	0
bin	74.662666666667	0
bin	74.696	0
bin	74.729333333333	0
bin	74.762666666667	0
bin	74.796	0
bin	74.829333333333	0
bin	74.862666666667	0
bin	74.896	0
statistic RandomGeometricGraph.rgnv[6] 	arrivalPerc:histogram
field count 1
field mean 1
field stddev nan
field sum 1
field sqrsum 1
field min 1
field max 1
attr interpolationmode  none
attr source  count(arrival)
attr title  "arrival perc, histogram"
bin	-INF	0
bin	0	0
bin	1	1
bin	2	0
statistic RandomGeometricGraph.rgnv[7] 	arrivalTime:histogram
field count 1
field mean 98.858
field stddev nan
field sum 98.858
field sqrsum 9772.904164
field min 98.858
field max 98.858
attr interpolationmode  none
attr source  arrivalTime
attr title  "arrival time, histogram"
bin	-INF	0
bin	98.358	0
bin	98.391333333333	0
bin	98.424666666667	0
bin	98.458	0
bin	98.491333333333	0
bin	98.524666666667	0
bin	98.558	0
bin	98.591333333333	0
bin	98.624666666667	0
bin	98.658	0
bin	98.691333333333	0
bin	98.724666666667	0
bin	98.758	0
bin	98.791333333333	0
bin	98.824666666667	0
bin	98.858	1
bin	98.891333333333	0
bin	98.924666666667	0
bin	98.958	0
bin	98.991333333333	0
bin	99.024666666667	0
bin	99.058	0
bin	99.091333333333	0
bin	99.124666666667	0
bin	99.158	0
bin	99.191333333333	0
bin	99.224666666667	0
bin	99.258	0
bin	99.291333333333	0
bin	99.324666666667	0
bin	99.358	0
statistic RandomGeometricGraph.rgnv[7] 	arrivalPerc:histogram
field count 1
field mean 1
field stddev nan
field sum 1
field sqrsum 1
field min 1
field max 1
attr interpolationmode  none
attr source  count(arrival)
attr title  "arrival perc, histogram"
bin	-INF	0
bin	0	0
bin	1	1
bin	2	0
statistic RandomGeometricGraph.rgnv[8] 	arrivalTime:histogram
field count 1
field mean 62.165
field stddev nan
field sum 62.165
field sqrsum 3864.487225
field min 62.165
field max 62.165
attr interpolationmode  none
attr source  arrivalTime
attr title  "arrival time, histogram"
bin	-INF	0
bin	61.665	0
bin	61.698333333333	0
bin	61.731666666667	0
bin	61.765	0
bin	61.798333333333	0
bin	61.831666666667	0
bin	61.865	0
bin	61.898333333333	0
bin	61.931666666667	0
bin	61.965	0
bin	61.998333333333	0
bin	62.031666666667	0
bin	62.065	0
bin	62.098333333333	0
bin	62.131666666667	0
bin	62.165	1
bin	62.198333333333	0
bin	62.231666666667	0
bin	62.265	0
bin	62.298333333333	0
bin	62.331666666667	0
bin	62.365	0
bin	62.398333333333	0
bin	62.431666666667	0
bin	62.465	0
bin	62.498333333333	0
bin	62.531666666667	0
bin	62.565	0
bin	62.598333333333	0
bin	62.631666666667	0
bin	62.665	0
statistic RandomGeometricGraph.rgnv[8] 	arrivalPerc:histogram
field count 1
field mean 1
field stddev nan
field sum 1
field sqrsum 1
field min 1
field max 1
attr interpolationmode  none
attr source  count(arrival)
attr title  "arrival perc, histogram"
bin	-INF	0
bin	0	0
bin	1	1
bin	2	0
statistic RandomGeometricGraph.rgnv[9] 	arrivalTime:histogram
field count 1
field mean 72.185
field stddev nan
field sum 72.185
field sqrsum 5210.674225
field min 72.185
field max 72.185
attr interpolationmode  none
attr source  arrivalTime
attr title  "arrival time, histogram"
bin	-INF	0
bin	71.685	0
bin	71.718333333333	0
bin	71.751666666667	0
bin	71.785	0
bin	71.818333333333	0
bin	71.851666666667	0
bin	71.885	0
bin	71.918333333333	0
bin	71.951666666667	0
bin	71.985	0
bin	72.018333333333	0
bin	72.051666666667	0
bin	72.085	0
bin	72.118333333333	0
bin	72.151666666667	0
bin	72.185	1
bin	72.218333333333	0
bin	72.251666666667	0
bin	72.285	0
bin	72.318333333333	0
bin	72.351666666667	0
bin	72.385	0
bin	72.418333333333	0
bin	72.451666666667	0
bin	72.485	0
bin	72.518333333333	0
bin	72.551666666667	0
bin	72.585	0
bin	72.618333333333	0
bin	72.651666666667	0
bin	72.685	0
statistic RandomGeometricGraph.rgnv[9] 	arrivalPerc:histogram
field count 1
field mean 1
field stddev nan
field sum 1
field sqrsum 1
field min 1
field max 1
attr interpolationmode  none
attr source  count(arrival)
attr title  "arrival perc, histogram"
bin	-INF	0
bin	0	0
bin	1	1
bin	2	0
statistic RandomGeometricGraph.rgnv[10] 	arrivalTime:histogram
field count 1
field mean 77.185
field stddev nan
field sum 77.185
field sqrsum 5957.524225
field min 77.185
field max 77.185
attr interpolationmode  none
attr source  arrivalTime
attr title  "arrival time, histogram"
bin	-INF	0
bin	76.685	0
bin	76.718333333333	0
bin	76.751666666667	0
bin	76.785	0
bin	76.818333333333	0
bin	76.851666666667	0
bin	76.885	0
bin	76.918333333333	0
bin	76.951666666667	0
bin	76.985	0
bin	77.018333333333	0
bin	77.051666666667	0
bin	77.085	0
bin	77.118333333333	0
bin	77.151666666667	0
bin	77.185	1
bin	77.218333333333	0
bin	77.251666666667	0
bin	77.285	0
bin	77.318333333333	0
bin	77.351666666667	0
bin	77.385	0
bin	77.418333333333	0
bin	77.451666666667	0
bin	77.485	0
bin	77.518333333333	0
bin	77.551666666667	0
bin	77.585	0
bin	77.618333333333	0
bin	77.651666666667	0
bin	77.685	0
statistic RandomGeometricGraph.rgnv[10] 	arrivalPerc:histogram
field count 1
field mean 1
field stddev nan
field sum 1
field sqrsum 1
field min 1
field max 1
attr interpolationmode  none
attr source  count(arrival)
attr title  "arrival perc, histogram"
bin	-INF	0
bin	0	0
bin	1	1
bin	2	0
statistic RandomGeometricGraph.rgnv[11] 	arrivalTime:histogram
field count 1
field mean 72.175
field stddev nan
field sum 72.175
field sqrsum 5209.230625
field min 72.175
field max 72.175
attr interpolationmode  none
attr source  arrivalTime
attr title  "arrival time, histogram"
bin	-INF	0
bin	71.675	0
bin	71.708333333333	0
bin	71.741666666667	0
bin	71.775	0
bin	71.808333333333	0
bin	71.841666666667	0
bin	71.875	0
bin	71.908333333333	0
bin	71.941666666667	0
bin	71.975	0
bin	72.008333333333	0
bin	72.041666666667	0
bin	72.075	0
bin	72.108333333333	0
bin	72.141666666667	0
bin	72.175	1
bin	72.208333333333	0
bin	72.241666666667	0
bin	72.275	0
bin	72.308333333333	0
bin	72.341666666667	0
bin	72.375	0
bin	72.408333333333	0
bin	72.441666666667	0
bin	72.475	0
bin	72.508333333333	0
bin	72.541666666667	0
bin	72.575	0
bin	72.608333333333	0
bin	72.641666666667	0
bin	72.675	0
statistic RandomGeometricGraph.rgnv[11] 	arrivalPerc:histogram
field count 1
field mean 1
field stddev nan
field sum 1
field sqrsum 1
field min 1
field max 1
attr interpolationmode  none
attr source  count(arrival)
attr title  "arrival perc, histogram"
bin	-INF	0
bin	0	0
bin	1	1
bin	2	0
statistic RandomGeometricGraph.rgnv[12] 	arrivalTime:histogram
field count 1
field mean 62.165
field stddev nan
field sum 62.165
field sqrsum 3864.487225
field min 62.165
field max 62.165
attr interpolationmode  none
attr source  arrivalTime
attr title  "arrival time, histogram"
bin	-INF	0
bin	61.665	0
bin	61.698333333333	0
bin	61.731666666667	0
bin	61.765	0
bin	61.798333333333	0
bin	61.831666666667	0
bin	61.865	0
bin	61.898333333333	0
bin	61.931666666667	0
bin	61.965	0
bin	61.998333333333	0
bin	62.031666666667	0
bin	62.065	0
bin	62.098333333333	0
bin	62.131666666667	0
bin	62.165	1
bin	62.198333333333	0
bin	62.231666666667	0
bin	62.265	0
bin	62.298333333333	0
bin	62.331666666667	0
bin	62.365	0
bin	62.398333333333	0
bin	62.431666666667	0
bin	62.465	0
bin	62.498333333333	0
bin	62.531666666667	0
bin	62.565	0
bin	62.598333333333	0
bin	62.631666666667	0
bin	62.665	0
statistic RandomGeometricGraph.rgnv[12] 	arrivalPerc:histogram
field count 1
field mean 1
field stddev nan
field sum 1
field sqrsum 1
field min 1
field max 1
attr interpolationmode  none
attr source  count(arrival)
attr title  "arrival perc, histogram"
bin	-INF	0
bin	0	0
bin	1	1
bin	2	0
statistic RandomGeometricGraph.rgnv[13] 	arrivalTime:histogram
field count 1
field mean 86.617
field stddev nan
field sum 86.617
field sqrsum 7502.504689
field min 86.617
field max 86.617
attr interpolationmode  none
attr source  arrivalTime
attr title  "arrival time, histogram"
bin	-INF	0
bin	86.117	0
bin	86.150333333333	0
bin	86.183666666667	0
bin	86.217	0
bin	86.250333333333	0
bin	86.283666666667	0
bin	86.317	0
bin	86.350333333333	0
bin	86.383666666667	0
bin	86.417	0
bin	86.450333333333	0
bin	86.483666666667	0
bin	86.517	0
bin	86.550333333333	0
bin	86.583666666667	0
bin	86.617	1
bin	86.650333333333	0
bin	86.683666666667	0
bin	86.717	0
bin	86.750333333333	0
bin	86.783666666667	0
bin	86.817	0
bin	86.850333333333	0
bin	86.883666666667	0
bin	86.917	0
bin	86.950333333333	0
bin	86.983666666667	0
bin	87.017	0
bin	87.050333333333	0
bin	87.083666666667	0
bin	87.117	0
statistic RandomGeometricGraph.rgnv[13] 	arrivalPerc:histogram
field count 1
field mean 1
field stddev nan
field sum 1
field sqrsum 1
field min 1
field max 1
attr interpolationmode  none
attr source  count(arrival)
attr title  "arrival perc, histogram"
bin	-INF	0
bin	0	0
bin	1	1
bin	2	0
statistic RandomGeometricGraph.rgnv[14] 	arrivalTime:histogram
field count 1
field mean 98.868
field stddev nan
field sum 98.868
field sqrsum 9774.881424
field min 98.868
field max 98.868
attr interpolationmode  none
attr source  arrivalTime
attr title  "arrival time, histogram"
bin	-INF	0
bin	98.368	0
bin	98.401333333333	0
bin	98.434666666667	0
bin	98.468	0
bin	98.501333333333	0
bin	98.534666666667	0
bin	98.568	0
bin	98.601333333333	0
bin	98.634666666667	0
bin	98.668	0
bin	98.701333333333	0
bin	98.734666666667	0
bin	98.768	0
bin	98.801333333333	0
bin	98.834666666667	0
bin	98.868	1
bin	98.901333333333	0
bin	98.934666666667	0
bin	98.968	0
bin	99.001333333333	0
bin	99.034666666667	0
bin	99.068	0
bin	99.101333333333	0
bin	99.134666666667	0
bin	99.168	0
bin	99.201333333333	0
bin	99.234666666667	0
bin	99.268	0
bin	99.301333333333	0
bin	99.334666666667	0
bin	99.368	0
statistic RandomGeometricGraph.rgnv[14] 	arrivalPerc:histogram
field count 1
field mean 1
field stddev nan
field sum 1
field sqrsum 1
field min 1
field max 1
attr interpolationmode  none
attr source  count(arrival)
attr title  "arrival perc, histogram"
bin	-INF	0
bin	0	0
bin	1	1
bin	2	0
statistic RandomGeometricGraph.rgnv[15] 	arrivalTime:histogram
field count 1
field mean 98.848
field stddev nan
field sum 98.848
field sqrsum 9770.927104
field min 98.848
field max 98.848
attr interpolationmode  none
attr source  arrivalTime
attr title  "arrival time, histogram"
bin	-INF	0
bin	98.348	0
bin	98.381333333333	0
bin	98.414666666667	0
bin	98.448	0
bin	98.481333333333	0
bin	98.514666666667	0
bin	98.548	0
bin	98.581333333333	0
bin	98.614666666667	0
bin	98.648	0
bin	98.681333333333	0
bin	98.714666666667	0
bin	98.748	0
bin	98.781333333333	0
bin	98.814666666667	0
bin	98.848	1
bin	98.881333333333	0
bin	98.914666666667	0
bin	98.948	0
bin	98.981333333333	0
bin	99.014666666667	0
bin	99.048	0
bin	99.081333333333	0
bin	99.114666666667	0
bin	99.148	0
bin	99.181333333333	0
bin	99.214666666667	0
bin	99.248	0
bin	99.281333333333	0
bin	99.314666666667	0
bin	99.348	0
statistic RandomGeometricGraph.rgnv[15] 	arrivalPerc:histogram
field count 1
field mean 1
field stddev nan
field sum 1
field sqrsum 1
field min 1
field max 1
attr interpolationmode  none
attr source  count(arrival)
attr title  "arrival perc, histogram"
bin	-INF	0
bin	0	0
bin	1	1
bin	2	0
statistic RandomGeometricGraph.rgnv[16] 	arrivalTime:histogram
field count 1
field mean 79.406
field stddev nan
field sum 79.406
field sqrsum 6305.312836
field min 79.406
field max 79.406
attr interpolationmode  none
attr source  arrivalTime
attr title  "arrival time, histogram"
bin	-INF	0
bin	78.906	0
bin	78.939333333333	0
bin	78.972666666667	0
bin	79.006	0
bin	79.039333333333	0
bin	79.072666666667	0
bin	79.106	0
bin	79.139333333333	0
bin	79.172666666667	0
bin	79.206	0
bin	79.239333333333	0
bin	79.272666666667	0
bin	79.306	0
bin	79.339333333333	0
bin	79.372666666667	0
bin	79.406	1
bin	79.439333333333	0
bin	79.472666666667	0
bin	79.506	0
bin	79.539333333333	0
bin	79.572666666667	0
bin	79.606	0
bin	79.639333333333	0
bin	79.672666666667	0
bin	79.706	0
bin	79.739333333333	0
bin	79.772666666667	0
bin	79.806	0
bin	79.839333333333	0
bin	79.872666666667	0
bin	79.906	0
statistic RandomGeometricGraph.rgnv[16] 	arrivalPerc:histogram
field count 1
field mean 1
field stddev nan
field sum 1
field sqrsum 1
field min 1
field max 1
attr interpolationmode  none
attr source  count(arrival)
attr title  "arrival perc, histogram"
bin	-INF	0
bin	0	0
bin	1	1
bin	2	0
statistic RandomGeometricGraph.rgnv[17] 	arrivalTime:histogram
field count 1
field mean 49.944
field stddev nan
field sum 49.944
field sqrsum 2494.403136
field min 49.944
field max 49.944
attr interpolationmode  none
attr source  arrivalTime
attr title  "arrival time, histogram"
bin	-INF	0
bin	49.444	0
bin	49.477333333333	0
bin	49.510666666667	0
bin	49.544	0
bin	49.577333333333	0
bin	49.610666666667	0
bin	49.644	0
bin	49.677333333333	0
bin	49.710666666667	0
bin	49.744	0
bin	49.777333333333	0
bin	49.810666666667	0
bin	49.844	0
bin	49.877333333333	0
bin	49.910666666667	0
bin	49.944	1
bin	49.977333333333	0
bin	50.010666666667	0
bin	50.044	0
bin	50.077333333333	0
bin	50.110666666667	0
bin	50.144	0
bin	50.177333333333	0
bin	50.210666666667	0
bin	50.244	0
bin	50.277333333333	0
bin	50.310666666667	0
bin	50.344	0
bin	50.377333333333	0
bin	50.410666666667	0
bin	50.444	0
statistic RandomGeometricGraph.rgnv[17] 	arrivalPerc:histogram
field count 1
field mean 1
field stddev nan
field sum 1
field sqrsum 1
field min 1
field max 1
attr interpolationmode  none
attr source  count(arrival)
attr title  "arrival perc, histogram"
bin	-INF	0
bin	0	0
bin	1	1
bin	2	0
statistic RandomGeometricGraph.rgnv[18] 	arrivalTime:histogram
field count 1
field mean 86.627
field stddev nan
field sum 86.627
field sqrsum 7504.237129
field min 86.627
field max 86.627
attr interpolationmode  none
attr source  arrivalTime
attr title  "arrival time, histogram"
bin	-INF	0
bin	86.127	0
bin	86.160333333333	0
bin	86.193666666667	0
bin	86.227	0
bin	86.260333333333	0
bin	86.293666666667	0
bin	86.327	0
bin	86.360333333333	0
bin	86.393666666667	0
bin	86.427	0
bin	86.460333333333	0
bin	86.493666666667	0
bin	86.527	0
bin	86.560333333333	0
bin	86.593666666667	0
bin	86.627	1
bin	86.660333333333	0
bin	86.693666666667	0
bin	86.727	0
bin	86.760333333333	0
bin	86.793666666667	0
bin	86.827	0
bin	86.860333333333	0
bin	86.893666666667	0
bin	86.927	0
bin	86.960333333333	0
bin	86.993666666667	0
bin	87.027	0
bin	87.060333333333	0
bin	87.093666666667	0
bin	87.127	0
statistic RandomGeometricGraph.rgnv[18] 	arrivalPerc:histogram
field count 1
field mean 1
field stddev nan
field sum 1
field sqrsum 1
field min 1
field max 1
attr interpolationmode  none
attr source  count(arrival)
attr title  "arrival perc, histogram"
bin	-INF	0
bin	0	0
bin	1	1
bin	2	0
statistic RandomGeometricGraph.rgnv[19] 	arrivalTime:histogram
field count 0
field mean nan
field stddev nan
field sum 0
field sqrsum 0
field min nan
field max nan
attr interpolationmode  none
attr source  arrivalTime
attr title  "arrival time, histogram"
bin	-INF	0
bin	-0.5	0
bin	-0.46666666666667	0
bin	-0.43333333333333	0
bin	-0.4	0
bin	-0.36666666666667	0
bin	-0.33333333333333	0
bin	-0.3	0
bin	-0.26666666666667	0
bin	-0.23333333333333	0
bin	-0.2	0
bin	-0.16666666666667	0
bin	-0.13333333333333	0
bin	-0.1	0
bin	-0.066666666666667	0
bin	-0.033333333333333	0
bin	0	0
bin	0.033333333333333	0
bin	0.066666666666667	0
bin	0.1	0
bin	0.13333333333333	0
bin	0.16666666666667	0
bin	0.2	0
bin	0.23333333333333	0
bin	0.26666666666667	0
bin	0.3	0
bin	0.33333333333333	0
bin	0.36666666666667	0
bin	0.4	0
bin	0.43333333333333	0
bin	0.46666666666667	0
bin	0.5	0
statistic RandomGeometricGraph.rgnv[19] 	arrivalPerc:histogram
field count 0
field mean nan
field stddev nan
field sum 0
field sqrsum 0
field min nan
field max nan
attr interpolationmode  none
attr source  count(arrival)
attr title  "arrival perc, histogram"
bin	-INF	0
bin	-0.5	0
bin	-0.46666666666667	0
bin	-0.43333333333333	0
bin	-0.4	0
bin	-0.36666666666667	0
bin	-0.33333333333333	0
bin	-0.3	0
bin	-0.26666666666667	0
bin	-0.23333333333333	0
bin	-0.2	0
bin	-0.16666666666667	0
bin	-0.13333333333333	0
bin	-0.1	0
bin	-0.066666666666667	0
bin	-0.033333333333333	0
bin	0	0
bin	0.033333333333333	0
bin	0.066666666666667	0
bin	0.1	0
bin	0.13333333333333	0
bin	0.16666666666667	0
bin	0.2	0
bin	0.23333333333333	0
bin	0.26666666666667	0
bin	0.3	0
bin	0.33333333333333	0
bin	0.36666666666667	0
bin	0.4	0
bin	0.43333333333333	0
bin	0.46666666666667	0
bin	0.5	0
statistic RandomGeometricGraph.rgnv[20] 	arrivalTime:histogram
field count 1
field mean 49.934
field stddev nan
field sum 49.934
field sqrsum 2493.404356
field min 49.934
field max 49.934
attr interpolationmode  none
attr source  arrivalTime
attr title  "arrival time, histogram"
bin	-INF	0
bin	49.434	0
bin	49.467333333333	0
bin	49.500666666667	0
bin	49.534	0
bin	49.567333333333	0
bin	49.600666666667	0
bin	49.634	0
bin	49.667333333333	0
bin	49.700666666667	0
bin	49.734	0
bin	49.767333333333	0
bin	49.800666666667	0
bin	49.834	0
bin	49.867333333333	0
bin	49.900666666667	0
bin	49.934	1
bin	49.967333333333	0
bin	50.000666666667	0
bin	50.034	0
bin	50.067333333333	0
bin	50.100666666667	0
bin	50.134	0
bin	50.167333333333	0
bin	50.200666666667	0
bin	50.234	0
bin	50.267333333333	0
bin	50.300666666667	0
bin	50.334	0
bin	50.367333333333	0
bin	50.400666666667	0
bin	50.434	0
statistic RandomGeometricGraph.rgnv[20] 	arrivalPerc:histogram
field count 1
field mean 1
field stddev nan
field sum 1
field sqrsum 1
field min 1
field max 1
attr interpolationmode  none
attr source  count(arrival)
attr title  "arrival perc, histogram"
bin	-INF	0
bin	0	0
bin	1	1
bin	2	0
statistic RandomGeometricGraph.rgnv[21] 	arrivalTime:histogram
field count 1
field mean 62.165
field stddev nan
field sum 62.165
field sqrsum 3864.487225
field min 62.165
field max 62.165
attr interpolationmode  none
attr source  arrivalTime
attr title  "arrival time, histogram"
bin	-INF	0
bin	61.665	0
bin	61.698333333333	0
bin	61.731666666667	0
bin	61.765	0
bin	61.798333333333	0
bin	61.831666666667	0
bin	61.865	0
bin	61.898333333333	0
bin	61.931666666667	0
bin	61.965	0
bin	61.998333333333	0
bin	62.031666666667	0
bin	62.065	0
bin	62.098333333333	0
bin	62.131666666667	0
bin	62.165	1
bin	62.198333333333	0
bin	62.231666666667	0
bin	62.265	0
bin	62.298333333333	0
bin	62.331666666667	0
bin	62.365	0
bin	62.398333333333	0
bin	62.431666666667	0
bin	62.465	0
bin	62.498333333333	0
bin	62.531666666667	0
bin	62.565	0
bin	62.598333333333	0
bin	62.631666666667	0
bin	62.665	0
statistic RandomGeometricGraph.rgnv[21] 	arrivalPerc:histogram
field count 1
field mean 1
field stddev nan
field sum 1
field sqrsum 1
field min 1
field max 1
attr interpolationmode  none
attr source  count(arrival)
attr title  "arrival perc, histogram"
bin	-INF	0
bin	0	0
bin	1	1
bin	2	0
statistic RandomGeometricGraph.rgnv[22] 	arrivalTime:histogram
field count 1
field mean 67.175
field stddev nan
field sum 67.175
field sqrsum 4512.480625
field min 67.175
field max 67.175
attr interpolationmode  none
attr source  arrivalTime
attr title  "arrival time, histogram"
bin	-INF	0
bin	66.675	0
bin	66.708333333333	0
bin	66.741666666667	0
bin	66.775	0
bin	66.808333333333	0
bin	66.841666666667	0
bin	66.875	0
bin	66.908333333333	0
bin	66.941666666667	0
bin	66.975	0
bin	67.008333333333	0
bin	67.041666666667	0
bin	67.075	0
bin	67.108333333333	0
bin	67.141666666667	0
bin	67.175	1
bin	67.208333333333	0
bin	67.241666666667	0
bin	67.275	0
bin	67.308333333333	0
bin	67.341666666667	0
bin	67.375	0
bin	67.408333333333	0
bin	67.441666666667	0
bin	67.475	0
bin	67.508333333333	0
bin	67.541666666667	0
bin	67.575	0
bin	67.608333333333	0
bin	67.641666666667	0
bin	67.675	0
statistic RandomGeometricGraph.rgnv[22] 	arrivalPerc:histogram
field count 1
field mean 1
field stddev nan
field sum 1
field sqrsum 1
field min 1
field max 1
attr interpolationmode  none
attr source  count(arrival)
attr title  "arrival perc, histogram"
bin	-INF	0
bin	0	0
bin	1	1
bin	2	0
statistic RandomGeometricGraph.rgnv[23] 	arrivalTime:histogram
field count 1
field mean 74.386
field stddev nan
field sum 74.386
field sqrsum 5533.276996
field min 74.386
field max 74.386
attr interpolationmode  none
attr source  arrivalTime
attr title  "arrival time, histogram"
bin	-INF	0
bin	73.886	0
bin	73.919333333333	0
bin	73.952666666667	0
bin	73.986	0
bin	74.019333333333	0
bin	74.052666666667	0
bin	74.086	0
bin	74.119333333333	0
bin	74.152666666667	0
bin	74.186	0
bin	74.219333333333	0
bin	74.252666666667	0
bin	74.286	0
bin	74.319333333333	0
bin	74.352666666667	0
bin	74.386	1
bin	74.419333333333	0
bin	74.452666666667	0
bin	74.486	0
bin	74.519333333333	0
bin	74.552666666667	0
bin	74.586	0
bin	74.619333333333	0
bin	74.652666666667	0
bin	74.686	0
bin	74.719333333333	0
bin	74.752666666667	0
bin	74.786	0
bin	74.819333333333	0
bin	74.852666666667	0
bin	74.886	0
statistic RandomGeometricGraph.rgnv[23] 	arrivalPerc:histogram
field count 1
field mean 1
field stddev nan
field sum 1
field sqrsum 1
field min 1
field max 1
attr interpolationmode  none
attr source  count(arrival)
attr title  "arrival perc, histogram"
bin	-INF	0
bin	0	0
bin	1	1
bin	2	0
statistic RandomGeometricGraph.rgnv[24] 	arrivalTime:histogram
field count 1
field mean 72.175
field stddev nan
field sum 72.175
field sqrsum 5209.230625
field min 72.175
field max 72.175
attr interpolationmode  none
attr source  arrivalTime
attr title  "arrival time, histogram"
bin	-INF	0
bin	71.675	0
bin	71.708333333333	0
bin	71.741666666667	0
bin	71.775	0
bin	71.808333333333	0
bin	71.841666666667	0
bin	71.875	0
bin	71.908333333333	0
bin	71.941666666667	0
bin	71.975	0
bin	72.008333333333	0
bin	72.041666666667	0
bin	72.075	0
bin	72.108333333333	0
bin	72.141666666667	0
bin	72.175	1
bin	72.208333333333	0
bin	72.241666666667	0
bin	72.275	0
bin	72.308333333333	0
bin	72.341666666667	0
bin	72.375	0
bin	72.408333333333	0
bin	72.441666666667	0
bin	72.475	0
bin	72.508333333333	0
bin	72.541666666667	0
bin	72.575	0
bin	72.608333333333	0
bin	72.641666666667	0
bin	72.675	0
statistic RandomGeometricGraph.rgnv[24] 	arrivalPerc:histogram
field count 1
field mean 1
field stddev nan
field sum 1
field sqrsum 1
field min 1
field max 1
attr interpolationmode  none
attr source  count(arrival)
attr title  "arrival perc, histogram"
bin	-INF	0
bin	0	0
bin	1	1
bin	2	0
statistic RandomGeometricGraph.rgnv[25] 	arrivalTime:histogram
field count 1
field mean 98.858
field stddev nan
field sum 98.858
field sqrsum 9772.904164
field min 98.858
field max 98.858
attr interpolationmode  none
attr source  arrivalTime
attr title  "arrival time, histogram"
bin	-INF	0
bin	98.358	0
bin	98.391333333333	0
bin	98.424666666667	0
bin	98.458	0
bin	98.491333333333	0
bin	98.524666666667	0
bin	98.558	0
bin	98.591333333333	0
bin	98.624666666667	0
bin	98.658	0
bin	98.691333333333	0
bin	98.724666666667	0
bin	98.758	0
bin	98.791333333333	0
bin	98.824666666667	0
bin	98.858	1
bin	98.891333333333	0
bin	98.924666666667	0
bin	98.958	0
bin	98.991333333333	0
bin	99.024666666667	0
bin	99.058	0
bin	99.091333333333	0
bin	99.124666666667	0
bin	99.158	0
bin	99.191333333333	0
bin	99.224666666667	0
bin	99.258	0
bin	99.291333333333	0
bin	99.324666666667	0
bin	99.358	0
statistic RandomGeometricGraph.rgnv[25] 	arrivalPerc:histogram
field count 1
field mean 1
field stddev nan
field sum 1
field sqrsum 1
field min 1
field max 1
attr interpolationmode  none
attr source  count(arrival)
attr title  "arrival perc, histogram"
bin	-INF	0
bin	0	0
bin	1	1
bin	2	0
statistic RandomGeometricGraph.rgnv[26] 	arrivalTime:histogram
field count 1
field mean 89.416
field stddev nan
field sum 89.416
field sqrsum 7995.221056
field min 89.416
field max 89.416
attr interpolationmode  none
attr source  arrivalTime
attr title  "arrival time, histogram"
bin	-INF	0
bin	88.916	0
bin	88.949333333333	0
bin	88.982666666667	0
bin	89.016	0
bin	89.049333333333	0
bin	89.082666666667	0
bin	89.116	0
bin	89.149333333333	0
bin	89.182666666667	0
bin	89.216	0
bin	89.249333333333	0
bin	89.282666666667	0
bin	89.316	0
bin	89.349333333333	0
bin	89.382666666667	0
bin	89.416	1
bin	89.449333333333	0
bin	89.482666666667	0
bin	89.516	0
bin	89.549333333333	0
bin	89.582666666667	0
bin	89.616	0
bin	89.649333333333	0
bin	89.682666666667	0
bin	89.716	0
bin	89.749333333333	0
bin	89.782666666667	0
bin	89.816	0
bin	89.849333333333	0
bin	89.882666666667	0
bin	89.916	0
statistic RandomGeometricGraph.rgnv[26] 	arrivalPerc:histogram
field count 1
field mean 1
field stddev nan
field sum 1
field sqrsum 1
field min 1
field max 1
attr interpolationmode  none
attr source  count(arrival)
attr title  "arrival perc, histogram"
bin	-INF	0
bin	0	0
bin	1	1
bin	2	0
statistic RandomGeometricGraph.rgnv[27] 	arrivalTime:histogram
field count 1
field mean 54.944
field stddev nan
field sum 54.944
field sqrsum 3018.843136
field min 54.944
field max 54.944
attr interpolationmode  none
attr source  arrivalTime
attr title  "arrival time, histogram"
bin	-INF	0
bin	54.444	0
bin	54.477333333333	0
bin	54.510666666667	0
bin	54.544	0
bin	54.577333333333	0
bin	54.610666666667	0
bin	54.644	0
bin	54.677333333333	0
bin	54.710666666667	0
bin	54.744	0
bin	54.777333333333	0
bin	54.810666666667	0
bin	54.844	0
bin	54.877333333333	0
bin	54.910666666667	0
bin	54.944	1
bin	54.977333333333	0
bin	55.010666666667	0
bin	55.044	0
bin	55.077333333333	0
bin	55.110666666667	0
bin	55.144	0
bin	55.177333333333	0
bin	55.210666666667	0
bin	55.244	0
bin	55.277333333333	0
bin	55.310666666667	0
bin	55.344	0
bin	55.377333333333	0
bin	55.410666666667	0
bin	55.444	0
statistic RandomGeometricGraph.rgnv[27] 	arrivalPerc:histogram
field count 1
field mean 1
field stddev nan
field sum 1
field sqrsum 1
field min 1
field max 1
attr interpolationmode  none
attr source  count(arrival)
attr title  "arrival perc, histogram"
bin	-INF	0
bin	0	0
bin	1	1
bin	2	0
statistic RandomGeometricGraph.rgnv[28] 	arrivalTime:histogram
field count 1
field mean 74.396
field stddev nan
field sum 74.396
field sqrsum 5534.764816
field min 74.396
field max 74.396
attr interpolationmode  none
attr source  arrivalTime
attr title  "arrival time, histogram"
bin	-INF	0
bin	73.896	0
bin	73.929333333333	0
bin	73.962666666667	0
bin	73.996	0
bin	74.029333333333	0
bin	74.062666666667	0
bin	74.096	0
bin	74.129333333333	0
bin	74.162666666667	0
bin	74.196	0
bin	74.229333333333	0
bin	74.262666666667	0
bin	74.296	0
bin	74.329333333333	0
bin	74.362666666667	0
bin	74.396	1
bin	74.429333333333	0
bin	74.462666666667	0
bin	74.496	0
bin	74.529333333333	0
bin	74.562666666667	0
bin	74.596	0
bin	74.629333333333	0
bin	74.662666666667	0
bin	74.696	0
bin	74.729333333333	0
bin	74.762666666667	0
bin	74.796	0
bin	74.829333333333	0
bin	74.862666666667	0
bin	74.896	0
statistic RandomGeometricGraph.rgnv[28] 	arrivalPerc:histogram
field count 1
field mean 1
field stddev nan
field sum 1
field sqrsum 1
field min 1
field max 1
attr interpolationmode  none
attr source  count(arrival)
attr title  "arrival perc, histogram"
bin	-INF	0
bin	0	0
bin	1	1
bin	2	0
statistic RandomGeometricGraph.rgnv[29] 	arrivalTime:histogram
field count 1
field mean 74.406
field stddev nan
field sum 74.406
field sqrsum 5536.252836
field min 74.406
field max 74.406
attr interpolationmode  none
attr source  arrivalTime
attr title  "arrival time, histogram"
bin	-INF	0
bin	73.906	0
bin	73.939333333333	0
bin	73.972666666667	0
bin	74.006	0
bin	74.039333333333	0
bin	74.072666666667	0
bin	74.106	0
bin	74.139333333333	0
bin	74.172666666667	0
bin	74.206	0
bin	74.239333333333	0
bin	74.272666666667	0
bin	74.306	0
bin	74.339333333333	0
bin	74.372666666667	0
bin	74.406	1
bin	74.439333333333	0
bin	74.472666666667	0
bin	74.506	0
bin	74.539333333333	0
bin	74.572666666667	0
bin	74.606	0
bin	74.639333333333	0
bin	74.672666666667	0
bin	74.706	0
bin	74.739333333333	0
bin	74.772666666667	0
bin	74.806	0
bin	74.839333333333	0
bin	74.872666666667	0
bin	74.906	0
statistic RandomGeometricGraph.rgnv[29] 	arrivalPerc:histogram
field count 1
field mean 1
field stddev nan
field sum 1
field sqrsum 1
field min 1
field max 1
attr interpolationmode  none
attr source  count(arrival)
attr title  "arrival perc, histogram"
bin	-INF	0
bin	0	0
bin	1	1
bin	2	0
statistic RandomGeometricGraph.rgnv[30] 	arrivalTime:histogram
field count 1
field mean 91.637
field stddev nan
field sum 91.637
field sqrsum 8397.339769
field min 91.637
field max 91.637
attr interpolationmode  none
attr source  arrivalTime
attr title  "arrival time, histogram"
bin	-INF	0
bin	91.137	0
bin	91.170333333333	0
bin	91.203666666667	0
bin	91.237	0
bin	91.270333333333	0
bin	91.303666666667	0
bin	91.337	0
bin	91.370333333333	0
bin	91.403666666667	0
bin	91.437	0
bin	91.470333333333	0
bin	91.503666666667	0
bin	91.537	0
bin	91.570333333333	0
bin	91.603666666667	0
bin	91.637	1
bin	91.670333333333	0
bin	91.703666666667	0
bin	91.737	0
bin	91.770333333333	0
bin	91.803666666667	0
bin	91.837	0
bin	91.870333333333	0
bin	91.903666666667	0
bin	91.937	0
bin	91.970333333333	0
bin	92.003666666667	0
bin	92.037	0
bin	92.070333333333	0
bin	92.103666666667	0
bin	92.137	0
statistic RandomGeometricGraph.rgnv[30] 	arrivalPerc:histogram
field count 1
field mean 1
field stddev nan
field sum 1
field sqrsum 1
field min 1
field max 1
attr interpolationmode  none
attr source  count(arrival)
attr title  "arrival perc, histogram"
bin	-INF	0
bin	0	0
bin	1	1
bin	2	0
statistic RandomGeometricGraph.rgnv[31] 	arrivalTime:histogram
field count 1
field mean 37.693
field stddev nan
field sum 37.693
field sqrsum 1420.762249
field min 37.693
field max 37.693
attr interpolationmode  none
attr source  arrivalTime
attr title  "arrival time, histogram"
bin	-INF	0
bin	37.193	0
bin	37.226333333333	0
bin	37.259666666667	0
bin	37.293	0
bin	37.326333333333	0
bin	37.359666666667	0
bin	37.393	0
bin	37.426333333333	0
bin	37.459666666667	0
bin	37.493	0
bin	37.526333333333	0
bin	37.559666666667	0
bin	37.593	0
bin	37.626333333333	0
bin	37.659666666667	0
bin	37.693	1
bin	37.726333333333	0
bin	37.759666666667	0
bin	37.793	0
bin	37.826333333333	0
bin	37.859666666667	0
bin	37.893	0
bin	37.926333333333	0
bin	37.959666666667	0
bin	37.993	0
bin	38.026333333333	0
bin	38.059666666667	0
bin	38.093	0
bin	38.126333333333	0
bin	38.159666666667	0
bin	38.193	0
statistic RandomGeometricGraph.rgnv[31] 	arrivalPerc:histogram
field count 1
field mean 1
field stddev nan
field sum 1
field sqrsum 1
field min 1
field max 1
attr interpolationmode  none
attr source  count(arrival)
attr title  "arrival perc, histogram"
bin	-INF	0
bin	0	0
bin	1	1
bin	2	0
statistic RandomGeometricGraph.rgnv[32] 	arrivalTime:histogram
field count 1
field mean 103.858
field stddev nan
field sum 103.858
field sqrsum 10786.484164
field min 103.858
field max 103.858
attr interpolationmode  none
attr source  arrivalTime
attr title  "arrival time, histogram"
bin	-INF	0
bin	103.358	0
bin	103.39133333333	0
bin	103.42466666667	0
bin	103.458	0
bin	103.49133333333	0
bin	103.52466666667	0
bin	103.558	0
bin	103.59133333333	0
bin	103.62466666667	0
bin	103.658	0
bin	103.69133333333	0
bin	103.72466666667	0
bin	103.758	0
bin	103.79133333333	0
bin	103.82466666667	0
bin	103.858	1
bin	103.89133333333	0
bin	103.92466666667	0
bin	103.958	0
bin	103.99133333333	0
bin	104.02466666667	0
bin	104.058	0
bin	104.09133333333	0
bin	104.12466666667	0
bin	104.158	0
bin	104.19133333333	0
bin	104.22466666667	0
bin	104.258	0
bin	104.29133333333	0
bin	104.32466666667	0
bin	104.358	0
statistic RandomGeometricGraph.rgnv[32] 	arrivalPerc:histogram
field count 1
field mean 1
field stddev nan
field sum 1
field sqrsum 1
field min 1
field max 1
attr interpolationmode  none
attr source  count(arrival)
attr title  "arrival perc, histogram"
bin	-INF	0
bin	0	0
bin	1	1
bin	2	0
statistic RandomGeometricGraph.rgnv[33] 	arrivalTime:histogram
field count 1
field mean 98.868
field stddev nan
field sum 98.868
field sqrsum 9774.881424
field min 98.868
field max 98.868
attr interpolationmode  none
attr source  arrivalTime
attr title  "arrival time, histogram"
bin	-INF	0
bin	98.368	0
bin	98.401333333333	0
bin	98.434666666667	0
bin	98.468	0
bin	98.501333333333	0
bin	98.534666666667	0
bin	98.568	0
bin	98.601333333333	0
bin	98.634666666667	0
bin	98.668	0
bin	98.701333333333	0
bin	98.734666666667	0
bin	98.768	0
bin	98.801333333333	0
bin	98.834666666667	0
bin	98.868	1
bin	98.901333333333	0
bin	98.934666666667	0
bin	98.968	0
bin	99.001333333333	0
bin	99.034666666667	0
bin	99.068	0
bin	99.101333333333	0
bin	99.134666666667	0
bin	99.168	0
bin	99.201333333333	0
bin	99.234666666667	0
bin	99.268	0
bin	99.301333333333	0
bin	99.334666666667	0
bin	99.368	0
statistic RandomGeometricGraph.rgnv[33] 	arrivalPerc:histogram
field count 1
field mean 1
field stddev nan
field sum 1
field sqrsum 1
field min 1
field max 1
attr interpolationmode  none
attr source  count(arrival)
attr title  "arrival perc, histogram"
bin	-INF	0
bin	0	0
bin	1	1
bin	2	0
statistic RandomGeometricGraph.rgnv[34] 	arrivalTime:histogram
field count 1
field mean 96.637
field stddev nan
field sum 96.637
field sqrsum 9338.709769
field min 96.637
field max 96.637
attr interpolationmode  none
attr source  arrivalTime
attr title  "arrival time, histogram"
bin	-INF	0
bin	96.137	0
bin	96.170333333333	0
bin	96.203666666667	0
bin	96.237	0
bin	96.270333333333	0
bin	96.303666666667	0
bin	96.337	0
bin	96.370333333333	0
bin	96.403666666667	0
bin	96.437	0
bin	96.470333333333	0
bin	96.503666666667	0
bin	96.537	0
bin	96.570333333333	0
bin	96.603666666667	0
bin	96.637	1
bin	96.670333333333	0
bin	96.703666666667	0
bin	96.737	0
bin	96.770333333333	0
bin	96.803666666667	0
bin	96.837	0
bin	96.870333333333	0
bin	96.903666666667	0
bin	96.937	0
bin	96.970333333333	0
bin	97.003666666667	0
bin	97.037	0
bin	97.070333333333	0
bin	97.103666666667	0
bin	97.137	0
statistic RandomGeometricGraph.rgnv[34] 	arrivalPerc:histogram
field count 1
field mean 1
field stddev nan
field sum 1
field sqrsum 1
field min 1
field max 1
attr interpolationmode  none
attr source  count(arrival)
attr title  "arrival perc, histogram"
bin	-INF	0
bin	0	0
bin	1	1
bin	2	0
statistic RandomGeometricGraph.rgnv[35] 	arrivalTime:histogram
field count 1
field mean 86.627
field stddev nan
field sum 86.627
field sqrsum 7504.237129
field min 86.627
field max 86.627
attr interpolationmode  none
attr source  arrivalTime
attr title  "arrival time, histogram"
bin	-INF	0
bin	86.127	0
bin	86.160333333333	0
bin	86.193666666667	0
bin	86.227	0
bin	86.260333333333	0
bin	86.293666666667	0
bin	86.327	0
bin	86.360333333333	0
bin	86.393666666667	0
bin	86.427	0
bin	86.460333333333	0
bin	86.493666666667	0
bin	86.527	0
bin	86.560333333333	0
bin	86.593666666667	0
bin	86.627	1
bin	86.660333333333	0
bin	86.693666666667	0
bin	86.727	0
bin	86.760333333333	0
bin	86.793666666667	0
bin	86.827	0
bin	86.860333333333	0
bin	86.893666666667	0
bin	86.927	0
bin	86.960333333333	0
bin	86.993666666667	0
bin	87.027	0
bin	87.060333333333	0
bin	87.093666666667	0
bin	87.127	0
statistic RandomGeometricGraph.rgnv[35] 	arrivalPerc:histogram
field count 1
field mean 1
field stddev nan
field sum 1
field sqrsum 1
field min 1
field max 1
attr interpolationmode  none
attr source  count(arrival)
attr title  "arrival perc, histogram"
bin	-INF	0
bin	0	0
bin	1	1
bin	2	0
statistic RandomGeometricGraph.rgnv[36] 	arrivalTime:histogram
field count 1
field mean 108.868
field stddev nan
field sum 108.868
field sqrsum 11852.241424
field min 108.868
field max 108.868
attr interpolationmode  none
attr source  arrivalTime
attr title  "arrival time, histogram"
bin	-INF	0
bin	108.368	0
bin	108.40133333333	0
bin	108.43466666667	0
bin	108.468	0
bin	108.50133333333	0
bin	108.53466666667	0
bin	108.568	0
bin	108.60133333333	0
bin	108.63466666667	0
bin	108.668	0
bin	108.70133333333	0
bin	108.73466666667	0
bin	108.768	0
bin	108.80133333333	0
bin	108.83466666667	0
bin	108.868	1
bin	108.90133333333	0
bin	108.93466666667	0
bin	108.968	0
bin	109.00133333333	0
bin	109.03466666667	0
bin	109.068	0
bin	109.10133333333	0
bin	109.13466666667	0
bin	109.168	0
bin	109.20133333333	0
bin	109.23466666667	0
bin	109.268	0
bin	109.30133333333	0
bin	109.33466666667	0
bin	109.368	0
statistic RandomGeometricGraph.rgnv[36] 	arrivalPerc:histogram
field count 1
field mean 1
field stddev nan
field sum 1
field sqrsum 1
field min 1
field max 1
attr interpolationmode  none
attr source  count(arrival)
attr title  "arrival perc, histogram"
bin	-INF	0
bin	0	0
bin	1	1
bin	2	0
statistic RandomGeometricGraph.rgnv[37] 	arrivalTime:histogram
field count 1
field mean 84.406
field stddev nan
field sum 84.406
field sqrsum 7124.372836
field min 84.406
field max 84.406
attr interpolationmode  none
attr source  arrivalTime
attr title  "arrival time, histogram"
bin	-INF	0
bin	83.906	0
bin	83.939333333333	0
bin	83.972666666667	0
bin	84.006	0
bin	84.039333333333	0
bin	84.072666666667	0
bin	84.106	0
bin	84.139333333333	0
bin	84.172666666667	0
bin	84.206	0
bin	84.239333333333	0
bin	84.272666666667	0
bin	84.306	0
bin	84.339333333333	0
bin	84.372666666667	0
bin	84.406	1
bin	84.439333333333	0
bin	84.472666666667	0
bin	84.506	0
bin	84.539333333333	0
bin	84.572666666667	0
bin	84.606	0
bin	84.639333333333	0
bin	84.672666666667	0
bin	84.706	0
bin	84.739333333333	0
bin	84.772666666667	0
bin	84.806	0
bin	84.839333333333	0
bin	84.872666666667	0
bin	84.906	0
statistic RandomGeometricGraph.rgnv[37] 	arrivalPerc:histogram
field count 1
field mean 1
field stddev nan
field sum 1
field sqrsum 1
field min 1
field max 1
attr interpolationmode  none
attr source  count(arrival)
attr title  "arrival perc, histogram"
bin	-INF	0
bin	0	0
bin	1	1
bin	2	0
statistic RandomGeometricGraph.rgnv[38] 	arrivalTime:histogram
field count 1
field mean 62.165
field stddev nan
field sum 62.165
field sqrsum 3864.487225
field min 62.165
field max 62.165
attr interpolationmode  none
attr source  arrivalTime
attr title  "arrival time, histogram"
bin	-INF	0
bin	61.665	0
bin	61.698333333333	0
bin	61.731666666667	0
bin	61.765	0
bin	61.798333333333	0
bin	61.831666666667	0
bin	61.865	0
bin	61.898333333333	0
bin	61.931666666667	0
bin	61.965	0
bin	61.998333333333	0
bin	62.031666666667	0
bin	62.065	0
bin	62.098333333333	0
bin	62.131666666667	0
bin	62.165	1
bin	62.198333333333	0
bin	62.231666666667	0
bin	62.265	0
bin	62.298333333333	0
bin	62.331666666667	0
bin	62.365	0
bin	62.398333333333	0
bin	62.431666666667	0
bin	62.465	0
bin	62.498333333333	0
bin	62.531666666667	0
bin	62.565	0
bin	62.598333333333	0
bin	62.631666666667	0
bin	62.665	0
statistic RandomGeometricGraph.rgnv[38] 	arrivalPerc:histogram
field count 1
field mean 1
field stddev nan
field sum 1
field sqrsum 1
field min 1
field max 1
attr interpolationmode  none
attr source  count(arrival)
attr title  "arrival perc, histogram"
bin	-INF	0
bin	0	0
bin	1	1
bin	2	0
statistic RandomGeometricGraph.rgnv[39] 	arrivalTime:histogram
field count 1
field mean 49.934
field stddev nan
field sum 49.934
field sqrsum 2493.404356
field min 49.934
field max 49.934
attr interpolationmode  none
attr source  arrivalTime
attr title  "arrival time, histogram"
bin	-INF	0
bin	49.434	0
bin	49.467333333333	0
bin	49.500666666667	0
bin	49.534	0
bin	49.567333333333	0
bin	49.600666666667	0
bin	49.634	0
bin	49.667333333333	0
bin	49.700666666667	0
bin	49.734	0
bin	49.767333333333	0
bin	49.800666666667	0
bin	49.834	0
bin	49.867333333333	0
bin	49.900666666667	0
bin	49.934	1
bin	49.967333333333	0
bin	50.000666666667	0
bin	50.034	0
bin	50.067333333333	0
bin	50.100666666667	0
bin	50.134	0
bin	50.167333333333	0
bin	50.200666666667	0
bin	50.234	0
bin	50.267333333333	0
bin	50.300666666667	0
bin	50.334	0
bin	50.367333333333	0
bin	50.400666666667	0
bin	50.434	0
statistic RandomGeometricGraph.rgnv[39] 	arrivalPerc:histogram
field count 1
field mean 1
field stddev nan
field sum 1
field sqrsum 1
field min 1
field max 1
attr interpolationmode  none
attr source  count(arrival)
attr title  "arrival perc, histogram"
bin	-INF	0
bin	0	0
bin	1	1
bin	2	0
statistic RandomGeometricGraph.rgnv[40] 	arrivalTime:histogram
field count 1
field mean 25.462
field stddev nan
field sum 25.462
field sqrsum 648.313444
field min 25.462
field max 25.462
attr interpolationmode  none
attr source  arrivalTime
attr title  "arrival time, histogram"
bin	-INF	0
bin	24.962	0
bin	24.995333333333	0
bin	25.028666666667	0
bin	25.062	0
bin	25.095333333333	0
bin	25.128666666667	0
bin	25.162	0
bin	25.195333333333	0
bin	25.228666666667	0
bin	25.262	0
bin	25.295333333333	0
bin	25.328666666667	0
bin	25.362	0
bin	25.395333333333	0
bin	25.428666666667	0
bin	25.462	1
bin	25.495333333333	0
bin	25.528666666667	0
bin	25.562	0
bin	25.595333333333	0
bin	25.628666666667	0
bin	25.662	0
bin	25.695333333333	0
bin	25.728666666667	0
bin	25.762	0
bin	25.795333333333	0
bin	25.828666666667	0
bin	25.862	0
bin	25.895333333333	0
bin	25.928666666667	0
bin	25.962	0
statistic RandomGeometricGraph.rgnv[40] 	arrivalPerc:histogram
field count 1
field mean 1
field stddev nan
field sum 1
field sqrsum 1
field min 1
field max 1
attr interpolationmode  none
attr source  count(arrival)
attr title  "arrival perc, histogram"
bin	-INF	0
bin	0	0
bin	1	1
bin	2	0
statistic RandomGeometricGraph.rgnv[41] 	arrivalTime:histogram
field count 1
field mean 49.934
field stddev nan
field sum 49.934
field sqrsum 2493.404356
field min 49.934
field max 49.934
attr interpolationmode  none
attr source  arrivalTime
attr title  "arrival time, histogram"
bin	-INF	0
bin	49.434	0
bin	49.467333333333	0
bin	49.500666666667	0
bin	49.534	0
bin	49.567333333333	0
bin	49.600666666667	0
bin	49.634	0
bin	49.667333333333	0
bin	49.700666666667	0
bin	49.734	0
bin	49.767333333333	0
bin	49.800666666667	0
bin	49.834	0
bin	49.867333333333	0
bin	49.900666666667	0
bin	49.934	1
bin	49.967333333333	0
bin	50.000666666667	0
bin	50.034	0
bin	50.067333333333	0
bin	50.100666666667	0
bin	50.134	0
bin	50.167333333333	0
bin	50.200666666667	0
bin	50.234	0
bin	50.267333333333	0
bin	50.300666666667	0
bin	50.334	0
bin	50.367333333333	0
bin	50.400666666667	0
bin	50.434	0
statistic RandomGeometricGraph.rgnv[41] 	arrivalPerc:histogram
field count 1
field mean 1
field stddev nan
field sum 1
field sqrsum 1
field min 1
field max 1
attr interpolationmode  none
attr source  count(arrival)
attr title  "arrival perc, histogram"
bin	-INF	0
bin	0	0
bin	1	1
bin	2	0
statistic RandomGeometricGraph.rgnv[42] 	arrivalTime:histogram
field count 1
field mean 111.099
field stddev nan
field sum 111.099
field sqrsum 12342.987801
field min 111.099
field max 111.099
attr interpolationmode  none
attr source  arrivalTime
attr title  "arrival time, histogram"
bin	-INF	0
bin	110.599	0
bin	110.63233333333	0
bin	110.66566666667	0
bin	110.699	0
bin	110.73233333333	0
bin	110.76566666667	0
bin	110.799	0
bin	110.83233333333	0
bin	110.86566666667	0
bin	110.899	0
bin	110.93233333333	0
bin	110.96566666667	0
bin	110.999	0
bin	111.03233333333	0
bin	111.06566666667	0
bin	111.099	1
bin	111.13233333333	0
bin	111.16566666667	0
bin	111.199	0
bin	111.23233333333	0
bin	111.26566666667	0
bin	111.299	0
bin	111.33233333333	0
bin	111.36566666667	0
bin	111.399	0
bin	111.43233333333	0
bin	111.46566666667	0
bin	111.499	0
bin	111.53233333333	0
bin	111.56566666667	0
bin	111.599	0
statistic RandomGeometricGraph.rgnv[42] 	arrivalPerc:histogram
field count 1
field mean 1
field stddev nan
field sum 1
field sqrsum 1
field min 1
field max 1
attr interpolationmode  none
attr source  count(arrival)
attr title  "arrival perc, histogram"
bin	-INF	0
bin	0	0
bin	1	1
bin	2	0
statistic RandomGeometricGraph.rgnv[43] 	arrivalTime:histogram
field count 1
field mean 67.175
field stddev nan
field sum 67.175
field sqrsum 4512.480625
field min 67.175
field max 67.175
attr interpolationmode  none
attr source  arrivalTime
attr title  "arrival time, histogram"
bin	-INF	0
bin	66.675	0
bin	66.708333333333	0
bin	66.741666666667	0
bin	66.775	0
bin	66.808333333333	0
bin	66.841666666667	0
bin	66.875	0
bin	66.908333333333	0
bin	66.941666666667	0
bin	66.975	0
bin	67.008333333333	0
bin	67.041666666667	0
bin	67.075	0
bin	67.108333333333	0
bin	67.141666666667	0
bin	67.175	1
bin	67.208333333333	0
bin	67.241666666667	0
bin	67.275	0
bin	67.308333333333	0
bin	67.341666666667	0
bin	67.375	0
bin	67.408333333333	0
bin	67.441666666667	0
bin	67.475	0
bin	67.508333333333	0
bin	67.541666666667	0
bin	67.575	0
bin	67.608333333333	0
bin	67.641666666667	0
bin	67.675	0
statistic RandomGeometricGraph.rgnv[43] 	arrivalPerc:histogram
field count 1
field mean 1
field stddev nan
field sum 1
field sqrsum 1
field min 1
field max 1
attr interpolationmode  none
attr source  count(arrival)
attr title  "arrival perc, histogram"
bin	-INF	0
bin	0	0
bin	1	1
bin	2	0
statistic RandomGeometricGraph.rgnv[44] 	arrivalTime:histogram
field count 1
field mean 0
field stddev nan
field sum 0
field sqrsum 0
field min 0
field max 0
attr interpolationmode  none
attr source  arrivalTime
attr title  "arrival time, histogram"
bin	-INF	0
bin	-0.5	0
bin	-0.46666666666667	0
bin	-0.43333333333333	0
bin	-0.4	0
bin	-0.36666666666667	0
bin	-0.33333333333333	0
bin	-0.3	0
bin	-0.26666666666667	0
bin	-0.23333333333333	0
bin	-0.2	0
bin	-0.16666666666667	0
bin	-0.13333333333333	0
bin	-0.1	0
bin	-0.066666666666667	0
bin	-0.033333333333333	0
bin	0	1
bin	0.033333333333333	0
bin	0.066666666666667	0
bin	0.1	0
bin	0.13333333333333	0
bin	0.16666666666667	0
bin	0.2	0
bin	0.23333333333333	0
bin	0.26666666666667	0
bin	0.3	0
bin	0.33333333333333	0
bin	0.36666666666667	0
bin	0.4	0
bin	0.43333333333333	0
bin	0.46666666666667	0
bin	0.5	0
statistic RandomGeometricGraph.rgnv[44] 	arrivalPerc:histogram
field count 1
field mean 1
field stddev nan
field sum 1
field sqrsum 1
field min 1
field max 1
attr interpolationmode  none
attr source  count(arrival)
attr title  "arrival perc, histogram"
bin	-INF	0
bin	0	0
bin	1	1
bin	2	0
statistic RandomGeometricGraph.rgnv[45] 	arrivalTime:histogram
field count 1
field mean 86.637
field stddev nan
field sum 86.637
field sqrsum 7505.969769
field min 86.637
field max 86.637
attr interpolationmode  none
attr source  arrivalTime
attr title  "arrival time, histogram"
bin	-INF	0
bin	86.137	0
bin	86.170333333333	0
bin	86.203666666667	0
bin	86.237	0
bin	86.270333333333	0
bin	86.303666666667	0
bin	86.337	0
bin	86.370333333333	0
bin	86.403666666667	0
bin	86.437	0
bin	86.470333333333	0
bin	86.503666666667	0
bin	86.537	0
bin	86.570333333333	0
bin	86.603666666667	0
bin	86.637	1
bin	86.670333333333	0
bin	86.703666666667	0
bin	86.737	0
bin	86.770333333333	0
bin	86.803666666667	0
bin	86.837	0
bin	86.870333333333	0
bin	86.903666666667	0
bin	86.937	0
bin	86.970333333333	0
bin	87.003666666667	0
bin	87.037	0
bin	87.070333333333	0
bin	87.103666666667	0
bin	87.137	0
statistic RandomGeometricGraph.rgnv[45] 	arrivalPerc:histogram
field count 1
field mean 1
field stddev nan
field sum 1
field sqrsum 1
field min 1
field max 1
attr interpolationmode  none
attr source  count(arrival)
attr title  "arrival perc, histogram"
bin	-INF	0
bin	0	0
bin	1	1
bin	2	0
statistic RandomGeometricGraph.rgnv[46] 	arrivalTime:histogram
field count 1
field mean 86.637
field stddev nan
field sum 86.637
field sqrsum 7505.969769
field min 86.637
field max 86.637
attr interpolationmode  none
attr source  arrivalTime
attr title  "arrival time, histogram"
bin	-INF	0
bin	86.137	0
bin	86.170333333333	0
bin	86.203666666667	0
bin	86.237	0
bin	86.270333333333	0
bin	86.303666666667	0
bin	86.337	0
bin	86.370333333333	0
bin	86.403666666667	0
bin	86.437	0
bin	86.470333333333	0
bin	86.503666666667	0
bin	86.537	0
bin	86.570333333333	0
bin	86.603666666667	0
bin	86.637	1
bin	86.670333333333	0
bin	86.703666666667	0
bin	86.737	0
bin	86.770333333333	0
bin	86.803666666667	0
bin	86.837	0
bin	86.870333333333	0
bin	86.903666666667	0
bin	86.937	0
bin	86.970333333333	0
bin	87.003666666667	0
bin	87.037	0
bin	87.070333333333	0
bin	87.103666666667	0
bin	87.137	0
statistic RandomGeometricGraph.rgnv[46] 	arrivalPerc:histogram
field count 1
field mean 1
field stddev nan
field sum 1
field sqrsum 1
field min 1
field max 1
attr interpolationmode  none
attr source  count(arrival)
attr title  "arrival perc, histogram"
bin	-INF	0
bin	0	0
bin	1	1
bin	2	0
statistic RandomGeometricGraph.rgnv[47] 	arrivalTime:histogram
field count 1
field mean 62.155
field stddev nan
field sum 62.155
field sqrsum 3863.244025
field min 62.155
field max 62.155
attr interpolationmode  none
attr source  arrivalTime
attr title  "arrival time, histogram"
bin	-INF	0
bin	61.655	0
bin	61.688333333333	0
bin	61.721666666667	0
bin	61.755	0
bin	61.788333333333	0
bin	61.821666666667	0
bin	61.855	0
bin	61.888333333333	0
bin	61.921666666667	0
bin	61.955	0
bin	61.988333333333	0
bin	62.021666666667	0
bin	62.055	0
bin	62.088333333333	0
bin	62.121666666667	0
bin	62.155	1
bin	62.188333333333	0
bin	62.221666666667	0
bin	62.255	0
bin	62.288333333333	0
bin	62.321666666667	0
bin	62.355	0
bin	62.388333333333	0
bin	62.421666666667	0
bin	62.455	0
bin	62.488333333333	0
bin	62.521666666667	0
bin	62.555	0
bin	62.588333333333	0
bin	62.621666666667	0
bin	62.655	0
statistic RandomGeometricGraph.rgnv[47] 	arrivalPerc:histogram
field count 1
field mean 1
field stddev nan
field sum 1
field sqrsum 1
field min 1
field max 1
attr interpolationmode  none
attr source  count(arrival)
attr title  "arrival perc, histogram"
bin	-INF	0
bin	0	0
bin	1	1
bin	2	0
statistic RandomGeometricGraph.rgnv[48] 	arrivalTime:histogram
field count 1
field mean 49.924
field stddev nan
field sum 49.924
field sqrsum 2492.405776
field min 49.924
field max 49.924
attr interpolationmode  none
attr source  arrivalTime
attr title  "arrival time, histogram"
bin	-INF	0
bin	49.424	0
bin	49.457333333333	0
bin	49.490666666667	0
bin	49.524	0
bin	49.557333333333	0
bin	49.590666666667	0
bin	49.624	0
bin	49.657333333333	0
bin	49.690666666667	0
bin	49.724	0
bin	49.757333333333	0
bin	49.790666666667	0
bin	49.824	0
bin	49.857333333333	0
bin	49.890666666667	0
bin	49.924	1
bin	49.957333333333	0
bin	49.990666666667	0
bin	50.024	0
bin	50.057333333333	0
bin	50.090666666667	0
bin	50.124	0
bin	50.157333333333	0
bin	50.190666666667	0
bin	50.224	0
bin	50.257333333333	0
bin	50.290666666667	0
bin	50.324	0
bin	50.357333333333	0
bin	50.390666666667	0
bin	50.424	0
statistic RandomGeometricGraph.rgnv[48] 	arrivalPerc:histogram
field count 1
field mean 1
field stddev nan
field sum 1
field sqrsum 1
field min 1
field max 1
attr interpolationmode  none
attr source  count(arrival)
attr title  "arrival perc, histogram"
bin	-INF	0
bin	0	0
bin	1	1
bin	2	0
statistic RandomGeometricGraph.rgnv[49] 	arrivalTime:histogram
field count 1
field mean 84.406
field stddev nan
field sum 84.406
field sqrsum 7124.372836
field min 84.406
field max 84.406
attr interpolationmode  none
attr source  arrivalTime
attr title  "arrival time, histogram"
bin	-INF	0
bin	83.906	0
bin	83.939333333333	0
bin	83.972666666667	0
bin	84.006	0
bin	84.039333333333	0
bin	84.072666666667	0
bin	84.106	0
bin	84.139333333333	0
bin	84.172666666667	0
bin	84.206	0
bin	84.239333333333	0
bin	84.272666666667	0
bin	84.306	0
bin	84.339333333333	0
bin	84.372666666667	0
bin	84.406	1
bin	84.439333333333	0
bin	84.472666666667	0
bin	84.506	0
bin	84.539333333333	0
bin	84.572666666667	0
bin	84.606	0
bin	84.639333333333	0
bin	84.672666666667	0
bin	84.706	0
bin	84.739333333333	0
bin	84.772666666667	0
bin	84.806	0
bin	84.839333333333	0
bin	84.872666666667	0
bin	84.906	0
statistic RandomGeometricGraph.rgnv[49] 	arrivalPerc:histogram
field count 1
field mean 1
field stddev nan
field sum 1
field sqrsum 1
field min 1
field max 1
attr interpolationmode  none
attr source  count(arrival)
attr title  "arrival perc, histogram"
bin	-INF	0
bin	0	0
bin	1	1
bin	2	0
