version 2
run rgg500-8-20170110-15:49:43-3596
attr configname rgg500
attr datetime 20170110-15:49:43
attr experiment rgg500
attr inifile iniFile/D002/omnetpp_50D002.ini
attr iterationvars ""
attr iterationvars2 $repetition=8
attr measurement ""
attr network blegossipprj.net.randomgeometricgraph.RandomGeometricGraph
attr processid 3596
attr repetition 8
attr replication #8
attr resultdir ../../results/D002/r50D002
attr runnumber 8
attr seedset 8
param RandomGeometricGraph.netSize 500
param RandomGeometricGraph.radius 50
param RandomGeometricGraph.rgnv[*].areaLength 158
param RandomGeometricGraph.rgnv[*].areaWidth 158

statistic RandomGeometricGraph.sc 	arrivalPercentage
field count 498
field mean 1
field stddev 0
field sum 498
field sqrsum 498
field min 1
field max 1
attr type  int
bin	-INF	0
bin	0	0
bin	1	498
bin	2	0
statistic RandomGeometricGraph.sc 	arrivalTime
field count 498
field mean 142.17574297189
field stddev 45.6181873647
field sum 70803.52
field sqrsum 11100809.51319
field min 0
field max 238.937
bin	-INF	0
bin	-50.8235	0
bin	-44.047033333333	0
bin	-37.270566666667	0
bin	-30.4941	0
bin	-23.717633333333	0
bin	-16.941166666667	0
bin	-10.1647	0
bin	-3.3882333333333	1
bin	3.3882333333333	0
bin	10.1647	1
bin	16.941166666667	0
bin	23.717633333333	2
bin	30.4941	0
bin	37.270566666667	4
bin	44.047033333333	6
bin	50.8235	2
bin	57.599966666667	7
bin	64.376433333333	6
bin	71.1529	12
bin	77.929366666667	19
bin	84.705833333333	9
bin	91.4823	22
bin	98.258766666667	18
bin	105.03523333333	22
bin	111.8117	15
bin	118.58816666667	27
bin	125.36463333333	33
bin	132.1411	40
bin	138.91756666667	21
bin	145.69403333333	24
bin	152.4705	207
statistic RandomGeometricGraph.rgnv[0] 	arrivalTime:histogram
field count 1
field mean 79.416
field stddev nan
field sum 79.416
field sqrsum 6306.901056
field min 79.416
field max 79.416
attr interpolationmode  none
attr source  arrivalTime
attr title  "arrival time, histogram"
bin	-INF	0
bin	78.916	0
bin	78.949333333333	0
bin	78.982666666667	0
bin	79.016	0
bin	79.049333333333	0
bin	79.082666666667	0
bin	79.116	0
bin	79.149333333333	0
bin	79.182666666667	0
bin	79.216	0
bin	79.249333333333	0
bin	79.282666666667	0
bin	79.316	0
bin	79.349333333333	0
bin	79.382666666667	0
bin	79.416	1
bin	79.449333333333	0
bin	79.482666666667	0
bin	79.516	0
bin	79.549333333333	0
bin	79.582666666667	0
bin	79.616	0
bin	79.649333333333	0
bin	79.682666666667	0
bin	79.716	0
bin	79.749333333333	0
bin	79.782666666667	0
bin	79.816	0
bin	79.849333333333	0
bin	79.882666666667	0
bin	79.916	0
statistic RandomGeometricGraph.rgnv[0] 	arrivalPerc:histogram
field count 1
field mean 1
field stddev nan
field sum 1
field sqrsum 1
field min 1
field max 1
attr interpolationmode  none
attr source  count(arrival)
attr title  "arrival perc, histogram"
bin	-INF	0
bin	0	0
bin	1	1
bin	2	0
statistic RandomGeometricGraph.rgnv[1] 	arrivalTime:histogram
field count 1
field mean 111.657
field stddev nan
field sum 111.657
field sqrsum 12467.285649
field min 111.657
field max 111.657
attr interpolationmode  none
attr source  arrivalTime
attr title  "arrival time, histogram"
bin	-INF	0
bin	111.157	0
bin	111.19033333333	0
bin	111.22366666667	0
bin	111.257	0
bin	111.29033333333	0
bin	111.32366666667	0
bin	111.357	0
bin	111.39033333333	0
bin	111.42366666667	0
bin	111.457	0
bin	111.49033333333	0
bin	111.52366666667	0
bin	111.557	0
bin	111.59033333333	0
bin	111.62366666667	0
bin	111.657	1
bin	111.69033333333	0
bin	111.72366666667	0
bin	111.757	0
bin	111.79033333333	0
bin	111.82366666667	0
bin	111.857	0
bin	111.89033333333	0
bin	111.92366666667	0
bin	111.957	0
bin	111.99033333333	0
bin	112.02366666667	0
bin	112.057	0
bin	112.09033333333	0
bin	112.12366666667	0
bin	112.157	0
statistic RandomGeometricGraph.rgnv[1] 	arrivalPerc:histogram
field count 1
field mean 1
field stddev nan
field sum 1
field sqrsum 1
field min 1
field max 1
attr interpolationmode  none
attr source  count(arrival)
attr title  "arrival perc, histogram"
bin	-INF	0
bin	0	0
bin	1	1
bin	2	0
statistic RandomGeometricGraph.rgnv[2] 	arrivalTime:histogram
field count 1
field mean 177.234
field stddev nan
field sum 177.234
field sqrsum 31411.890756
field min 177.234
field max 177.234
attr interpolationmode  none
attr source  arrivalTime
attr title  "arrival time, histogram"
bin	-INF	0
bin	176.734	0
bin	176.76733333333	0
bin	176.80066666667	0
bin	176.834	0
bin	176.86733333333	0
bin	176.90066666667	0
bin	176.934	0
bin	176.96733333333	0
bin	177.00066666667	0
bin	177.034	0
bin	177.06733333333	0
bin	177.10066666667	0
bin	177.134	0
bin	177.16733333333	0
bin	177.20066666667	0
bin	177.234	1
bin	177.26733333333	0
bin	177.30066666667	0
bin	177.334	0
bin	177.36733333333	0
bin	177.40066666667	0
bin	177.434	0
bin	177.46733333333	0
bin	177.50066666667	0
bin	177.534	0
bin	177.56733333333	0
bin	177.60066666667	0
bin	177.634	0
bin	177.66733333333	0
bin	177.70066666667	0
bin	177.734	0
statistic RandomGeometricGraph.rgnv[2] 	arrivalPerc:histogram
field count 1
field mean 1
field stddev nan
field sum 1
field sqrsum 1
field min 1
field max 1
attr interpolationmode  none
attr source  count(arrival)
attr title  "arrival perc, histogram"
bin	-INF	0
bin	0	0
bin	1	1
bin	2	0
statistic RandomGeometricGraph.rgnv[3] 	arrivalTime:histogram
field count 1
field mean 182.254
field stddev nan
field sum 182.254
field sqrsum 33216.520516
field min 182.254
field max 182.254
attr interpolationmode  none
attr source  arrivalTime
attr title  "arrival time, histogram"
bin	-INF	0
bin	181.754	0
bin	181.78733333333	0
bin	181.82066666667	0
bin	181.854	0
bin	181.88733333333	0
bin	181.92066666667	0
bin	181.954	0
bin	181.98733333333	0
bin	182.02066666667	0
bin	182.054	0
bin	182.08733333333	0
bin	182.12066666667	0
bin	182.154	0
bin	182.18733333333	0
bin	182.22066666667	0
bin	182.254	1
bin	182.28733333333	0
bin	182.32066666667	0
bin	182.354	0
bin	182.38733333333	0
bin	182.42066666667	0
bin	182.454	0
bin	182.48733333333	0
bin	182.52066666667	0
bin	182.554	0
bin	182.58733333333	0
bin	182.62066666667	0
bin	182.654	0
bin	182.68733333333	0
bin	182.72066666667	0
bin	182.754	0
statistic RandomGeometricGraph.rgnv[3] 	arrivalPerc:histogram
field count 1
field mean 1
field stddev nan
field sum 1
field sqrsum 1
field min 1
field max 1
attr interpolationmode  none
attr source  count(arrival)
attr title  "arrival perc, histogram"
bin	-INF	0
bin	0	0
bin	1	1
bin	2	0
statistic RandomGeometricGraph.rgnv[4] 	arrivalTime:histogram
field count 1
field mean 113.868
field stddev nan
field sum 113.868
field sqrsum 12965.921424
field min 113.868
field max 113.868
attr interpolationmode  none
attr source  arrivalTime
attr title  "arrival time, histogram"
bin	-INF	0
bin	113.368	0
bin	113.40133333333	0
bin	113.43466666667	0
bin	113.468	0
bin	113.50133333333	0
bin	113.53466666667	0
bin	113.568	0
bin	113.60133333333	0
bin	113.63466666667	0
bin	113.668	0
bin	113.70133333333	0
bin	113.73466666667	0
bin	113.768	0
bin	113.80133333333	0
bin	113.83466666667	0
bin	113.868	1
bin	113.90133333333	0
bin	113.93466666667	0
bin	113.968	0
bin	114.00133333333	0
bin	114.03466666667	0
bin	114.068	0
bin	114.10133333333	0
bin	114.13466666667	0
bin	114.168	0
bin	114.20133333333	0
bin	114.23466666667	0
bin	114.268	0
bin	114.30133333333	0
bin	114.33466666667	0
bin	114.368	0
statistic RandomGeometricGraph.rgnv[4] 	arrivalPerc:histogram
field count 1
field mean 1
field stddev nan
field sum 1
field sqrsum 1
field min 1
field max 1
attr interpolationmode  none
attr source  count(arrival)
attr title  "arrival perc, histogram"
bin	-INF	0
bin	0	0
bin	1	1
bin	2	0
statistic RandomGeometricGraph.rgnv[5] 	arrivalTime:histogram
field count 1
field mean 91.627
field stddev nan
field sum 91.627
field sqrsum 8395.507129
field min 91.627
field max 91.627
attr interpolationmode  none
attr source  arrivalTime
attr title  "arrival time, histogram"
bin	-INF	0
bin	91.127	0
bin	91.160333333333	0
bin	91.193666666667	0
bin	91.227	0
bin	91.260333333333	0
bin	91.293666666667	0
bin	91.327	0
bin	91.360333333333	0
bin	91.393666666667	0
bin	91.427	0
bin	91.460333333333	0
bin	91.493666666667	0
bin	91.527	0
bin	91.560333333333	0
bin	91.593666666667	0
bin	91.627	1
bin	91.660333333333	0
bin	91.693666666667	0
bin	91.727	0
bin	91.760333333333	0
bin	91.793666666667	0
bin	91.827	0
bin	91.860333333333	0
bin	91.893666666667	0
bin	91.927	0
bin	91.960333333333	0
bin	91.993666666667	0
bin	92.027	0
bin	92.060333333333	0
bin	92.093666666667	0
bin	92.127	0
statistic RandomGeometricGraph.rgnv[5] 	arrivalPerc:histogram
field count 1
field mean 1
field stddev nan
field sum 1
field sqrsum 1
field min 1
field max 1
attr interpolationmode  none
attr source  count(arrival)
attr title  "arrival perc, histogram"
bin	-INF	0
bin	0	0
bin	1	1
bin	2	0
statistic RandomGeometricGraph.rgnv[6] 	arrivalTime:histogram
field count 1
field mean 207.792
field stddev nan
field sum 207.792
field sqrsum 43177.515264
field min 207.792
field max 207.792
attr interpolationmode  none
attr source  arrivalTime
attr title  "arrival time, histogram"
bin	-INF	0
bin	207.292	0
bin	207.32533333333	0
bin	207.35866666667	0
bin	207.392	0
bin	207.42533333333	0
bin	207.45866666667	0
bin	207.492	0
bin	207.52533333333	0
bin	207.55866666667	0
bin	207.592	0
bin	207.62533333333	0
bin	207.65866666667	0
bin	207.692	0
bin	207.72533333333	0
bin	207.75866666667	0
bin	207.792	1
bin	207.82533333333	0
bin	207.85866666667	0
bin	207.892	0
bin	207.92533333333	0
bin	207.95866666667	0
bin	207.992	0
bin	208.02533333333	0
bin	208.05866666667	0
bin	208.092	0
bin	208.12533333333	0
bin	208.15866666667	0
bin	208.192	0
bin	208.22533333333	0
bin	208.25866666667	0
bin	208.292	0
statistic RandomGeometricGraph.rgnv[6] 	arrivalPerc:histogram
field count 1
field mean 1
field stddev nan
field sum 1
field sqrsum 1
field min 1
field max 1
attr interpolationmode  none
attr source  count(arrival)
attr title  "arrival perc, histogram"
bin	-INF	0
bin	0	0
bin	1	1
bin	2	0
statistic RandomGeometricGraph.rgnv[7] 	arrivalTime:histogram
field count 1
field mean 166.109
field stddev nan
field sum 166.109
field sqrsum 27592.199881
field min 166.109
field max 166.109
attr interpolationmode  none
attr source  arrivalTime
attr title  "arrival time, histogram"
bin	-INF	0
bin	165.609	0
bin	165.64233333333	0
bin	165.67566666667	0
bin	165.709	0
bin	165.74233333333	0
bin	165.77566666667	0
bin	165.809	0
bin	165.84233333333	0
bin	165.87566666667	0
bin	165.909	0
bin	165.94233333333	0
bin	165.97566666667	0
bin	166.009	0
bin	166.04233333333	0
bin	166.07566666667	0
bin	166.109	1
bin	166.14233333333	0
bin	166.17566666667	0
bin	166.209	0
bin	166.24233333333	0
bin	166.27566666667	0
bin	166.309	0
bin	166.34233333333	0
bin	166.37566666667	0
bin	166.409	0
bin	166.44233333333	0
bin	166.47566666667	0
bin	166.509	0
bin	166.54233333333	0
bin	166.57566666667	0
bin	166.609	0
statistic RandomGeometricGraph.rgnv[7] 	arrivalPerc:histogram
field count 1
field mean 1
field stddev nan
field sum 1
field sqrsum 1
field min 1
field max 1
attr interpolationmode  none
attr source  count(arrival)
attr title  "arrival perc, histogram"
bin	-INF	0
bin	0	0
bin	1	1
bin	2	0
statistic RandomGeometricGraph.rgnv[8] 	arrivalTime:histogram
field count 1
field mean 123.33
field stddev nan
field sum 123.33
field sqrsum 15210.2889
field min 123.33
field max 123.33
attr interpolationmode  none
attr source  arrivalTime
attr title  "arrival time, histogram"
bin	-INF	0
bin	122.83	0
bin	122.86333333333	0
bin	122.89666666667	0
bin	122.93	0
bin	122.96333333333	0
bin	122.99666666667	0
bin	123.03	0
bin	123.06333333333	0
bin	123.09666666667	0
bin	123.13	0
bin	123.16333333333	0
bin	123.19666666667	0
bin	123.23	0
bin	123.26333333333	0
bin	123.29666666667	0
bin	123.33	1
bin	123.36333333333	0
bin	123.39666666667	0
bin	123.43	0
bin	123.46333333333	0
bin	123.49666666667	0
bin	123.53	0
bin	123.56333333333	0
bin	123.59666666667	0
bin	123.63	0
bin	123.66333333333	0
bin	123.69666666667	0
bin	123.73	0
bin	123.76333333333	0
bin	123.79666666667	0
bin	123.83	0
statistic RandomGeometricGraph.rgnv[8] 	arrivalPerc:histogram
field count 1
field mean 1
field stddev nan
field sum 1
field sqrsum 1
field min 1
field max 1
attr interpolationmode  none
attr source  count(arrival)
attr title  "arrival perc, histogram"
bin	-INF	0
bin	0	0
bin	1	1
bin	2	0
statistic RandomGeometricGraph.rgnv[9] 	arrivalTime:histogram
field count 1
field mean 138.33
field stddev nan
field sum 138.33
field sqrsum 19135.1889
field min 138.33
field max 138.33
attr interpolationmode  none
attr source  arrivalTime
attr title  "arrival time, histogram"
bin	-INF	0
bin	137.83	0
bin	137.86333333333	0
bin	137.89666666667	0
bin	137.93	0
bin	137.96333333333	0
bin	137.99666666667	0
bin	138.03	0
bin	138.06333333333	0
bin	138.09666666667	0
bin	138.13	0
bin	138.16333333333	0
bin	138.19666666667	0
bin	138.23	0
bin	138.26333333333	0
bin	138.29666666667	0
bin	138.33	1
bin	138.36333333333	0
bin	138.39666666667	0
bin	138.43	0
bin	138.46333333333	0
bin	138.49666666667	0
bin	138.53	0
bin	138.56333333333	0
bin	138.59666666667	0
bin	138.63	0
bin	138.66333333333	0
bin	138.69666666667	0
bin	138.73	0
bin	138.76333333333	0
bin	138.79666666667	0
bin	138.83	0
statistic RandomGeometricGraph.rgnv[9] 	arrivalPerc:histogram
field count 1
field mean 1
field stddev nan
field sum 1
field sqrsum 1
field min 1
field max 1
attr interpolationmode  none
attr source  count(arrival)
attr title  "arrival perc, histogram"
bin	-INF	0
bin	0	0
bin	1	1
bin	2	0
statistic RandomGeometricGraph.rgnv[10] 	arrivalTime:histogram
field count 1
field mean 136.099
field stddev nan
field sum 136.099
field sqrsum 18522.937801
field min 136.099
field max 136.099
attr interpolationmode  none
attr source  arrivalTime
attr title  "arrival time, histogram"
bin	-INF	0
bin	135.599	0
bin	135.63233333333	0
bin	135.66566666667	0
bin	135.699	0
bin	135.73233333333	0
bin	135.76566666667	0
bin	135.799	0
bin	135.83233333333	0
bin	135.86566666667	0
bin	135.899	0
bin	135.93233333333	0
bin	135.96566666667	0
bin	135.999	0
bin	136.03233333333	0
bin	136.06566666667	0
bin	136.099	1
bin	136.13233333333	0
bin	136.16566666667	0
bin	136.199	0
bin	136.23233333333	0
bin	136.26566666667	0
bin	136.299	0
bin	136.33233333333	0
bin	136.36566666667	0
bin	136.399	0
bin	136.43233333333	0
bin	136.46566666667	0
bin	136.499	0
bin	136.53233333333	0
bin	136.56566666667	0
bin	136.599	0
statistic RandomGeometricGraph.rgnv[10] 	arrivalPerc:histogram
field count 1
field mean 1
field stddev nan
field sum 1
field sqrsum 1
field min 1
field max 1
attr interpolationmode  none
attr source  count(arrival)
attr title  "arrival perc, histogram"
bin	-INF	0
bin	0	0
bin	1	1
bin	2	0
statistic RandomGeometricGraph.rgnv[11] 	arrivalTime:histogram
field count 1
field mean 143.888
field stddev nan
field sum 143.888
field sqrsum 20703.756544
field min 143.888
field max 143.888
attr interpolationmode  none
attr source  arrivalTime
attr title  "arrival time, histogram"
bin	-INF	0
bin	143.388	0
bin	143.42133333333	0
bin	143.45466666667	0
bin	143.488	0
bin	143.52133333333	0
bin	143.55466666667	0
bin	143.588	0
bin	143.62133333333	0
bin	143.65466666667	0
bin	143.688	0
bin	143.72133333333	0
bin	143.75466666667	0
bin	143.788	0
bin	143.82133333333	0
bin	143.85466666667	0
bin	143.888	1
bin	143.92133333333	0
bin	143.95466666667	0
bin	143.988	0
bin	144.02133333333	0
bin	144.05466666667	0
bin	144.088	0
bin	144.12133333333	0
bin	144.15466666667	0
bin	144.188	0
bin	144.22133333333	0
bin	144.25466666667	0
bin	144.288	0
bin	144.32133333333	0
bin	144.35466666667	0
bin	144.388	0
statistic RandomGeometricGraph.rgnv[11] 	arrivalPerc:histogram
field count 1
field mean 1
field stddev nan
field sum 1
field sqrsum 1
field min 1
field max 1
attr interpolationmode  none
attr source  count(arrival)
attr title  "arrival perc, histogram"
bin	-INF	0
bin	0	0
bin	1	1
bin	2	0
statistic RandomGeometricGraph.rgnv[12] 	arrivalTime:histogram
field count 1
field mean 62.165
field stddev nan
field sum 62.165
field sqrsum 3864.487225
field min 62.165
field max 62.165
attr interpolationmode  none
attr source  arrivalTime
attr title  "arrival time, histogram"
bin	-INF	0
bin	61.665	0
bin	61.698333333333	0
bin	61.731666666667	0
bin	61.765	0
bin	61.798333333333	0
bin	61.831666666667	0
bin	61.865	0
bin	61.898333333333	0
bin	61.931666666667	0
bin	61.965	0
bin	61.998333333333	0
bin	62.031666666667	0
bin	62.065	0
bin	62.098333333333	0
bin	62.131666666667	0
bin	62.165	1
bin	62.198333333333	0
bin	62.231666666667	0
bin	62.265	0
bin	62.298333333333	0
bin	62.331666666667	0
bin	62.365	0
bin	62.398333333333	0
bin	62.431666666667	0
bin	62.465	0
bin	62.498333333333	0
bin	62.531666666667	0
bin	62.565	0
bin	62.598333333333	0
bin	62.631666666667	0
bin	62.665	0
statistic RandomGeometricGraph.rgnv[12] 	arrivalPerc:histogram
field count 1
field mean 1
field stddev nan
field sum 1
field sqrsum 1
field min 1
field max 1
attr interpolationmode  none
attr source  count(arrival)
attr title  "arrival perc, histogram"
bin	-INF	0
bin	0	0
bin	1	1
bin	2	0
statistic RandomGeometricGraph.rgnv[13] 	arrivalTime:histogram
field count 1
field mean 123.878
field stddev nan
field sum 123.878
field sqrsum 15345.758884
field min 123.878
field max 123.878
attr interpolationmode  none
attr source  arrivalTime
attr title  "arrival time, histogram"
bin	-INF	0
bin	123.378	0
bin	123.41133333333	0
bin	123.44466666667	0
bin	123.478	0
bin	123.51133333333	0
bin	123.54466666667	0
bin	123.578	0
bin	123.61133333333	0
bin	123.64466666667	0
bin	123.678	0
bin	123.71133333333	0
bin	123.74466666667	0
bin	123.778	0
bin	123.81133333333	0
bin	123.84466666667	0
bin	123.878	1
bin	123.91133333333	0
bin	123.94466666667	0
bin	123.978	0
bin	124.01133333333	0
bin	124.04466666667	0
bin	124.078	0
bin	124.11133333333	0
bin	124.14466666667	0
bin	124.178	0
bin	124.21133333333	0
bin	124.24466666667	0
bin	124.278	0
bin	124.31133333333	0
bin	124.34466666667	0
bin	124.378	0
statistic RandomGeometricGraph.rgnv[13] 	arrivalPerc:histogram
field count 1
field mean 1
field stddev nan
field sum 1
field sqrsum 1
field min 1
field max 1
attr interpolationmode  none
attr source  count(arrival)
attr title  "arrival perc, histogram"
bin	-INF	0
bin	0	0
bin	1	1
bin	2	0
statistic RandomGeometricGraph.rgnv[14] 	arrivalTime:histogram
field count 1
field mean 140.551
field stddev nan
field sum 140.551
field sqrsum 19754.583601
field min 140.551
field max 140.551
attr interpolationmode  none
attr source  arrivalTime
attr title  "arrival time, histogram"
bin	-INF	0
bin	140.051	0
bin	140.08433333333	0
bin	140.11766666667	0
bin	140.151	0
bin	140.18433333333	0
bin	140.21766666667	0
bin	140.251	0
bin	140.28433333333	0
bin	140.31766666667	0
bin	140.351	0
bin	140.38433333333	0
bin	140.41766666667	0
bin	140.451	0
bin	140.48433333333	0
bin	140.51766666667	0
bin	140.551	1
bin	140.58433333333	0
bin	140.61766666667	0
bin	140.651	0
bin	140.68433333333	0
bin	140.71766666667	0
bin	140.751	0
bin	140.78433333333	0
bin	140.81766666667	0
bin	140.851	0
bin	140.88433333333	0
bin	140.91766666667	0
bin	140.951	0
bin	140.98433333333	0
bin	141.01766666667	0
bin	141.051	0
statistic RandomGeometricGraph.rgnv[14] 	arrivalPerc:histogram
field count 1
field mean 1
field stddev nan
field sum 1
field sqrsum 1
field min 1
field max 1
attr interpolationmode  none
attr source  count(arrival)
attr title  "arrival perc, histogram"
bin	-INF	0
bin	0	0
bin	1	1
bin	2	0
statistic RandomGeometricGraph.rgnv[15] 	arrivalTime:histogram
field count 1
field mean 138.878
field stddev nan
field sum 138.878
field sqrsum 19287.098884
field min 138.878
field max 138.878
attr interpolationmode  none
attr source  arrivalTime
attr title  "arrival time, histogram"
bin	-INF	0
bin	138.378	0
bin	138.41133333333	0
bin	138.44466666667	0
bin	138.478	0
bin	138.51133333333	0
bin	138.54466666667	0
bin	138.578	0
bin	138.61133333333	0
bin	138.64466666667	0
bin	138.678	0
bin	138.71133333333	0
bin	138.74466666667	0
bin	138.778	0
bin	138.81133333333	0
bin	138.84466666667	0
bin	138.878	1
bin	138.91133333333	0
bin	138.94466666667	0
bin	138.978	0
bin	139.01133333333	0
bin	139.04466666667	0
bin	139.078	0
bin	139.11133333333	0
bin	139.14466666667	0
bin	139.178	0
bin	139.21133333333	0
bin	139.24466666667	0
bin	139.278	0
bin	139.31133333333	0
bin	139.34466666667	0
bin	139.378	0
statistic RandomGeometricGraph.rgnv[15] 	arrivalPerc:histogram
field count 1
field mean 1
field stddev nan
field sum 1
field sqrsum 1
field min 1
field max 1
attr interpolationmode  none
attr source  count(arrival)
attr title  "arrival perc, histogram"
bin	-INF	0
bin	0	0
bin	1	1
bin	2	0
statistic RandomGeometricGraph.rgnv[16] 	arrivalTime:histogram
field count 1
field mean 138.34
field stddev nan
field sum 138.34
field sqrsum 19137.9556
field min 138.34
field max 138.34
attr interpolationmode  none
attr source  arrivalTime
attr title  "arrival time, histogram"
bin	-INF	0
bin	137.84	0
bin	137.87333333333	0
bin	137.90666666667	0
bin	137.94	0
bin	137.97333333333	0
bin	138.00666666667	0
bin	138.04	0
bin	138.07333333333	0
bin	138.10666666667	0
bin	138.14	0
bin	138.17333333333	0
bin	138.20666666667	0
bin	138.24	0
bin	138.27333333333	0
bin	138.30666666667	0
bin	138.34	1
bin	138.37333333333	0
bin	138.40666666667	0
bin	138.44	0
bin	138.47333333333	0
bin	138.50666666667	0
bin	138.54	0
bin	138.57333333333	0
bin	138.60666666667	0
bin	138.64	0
bin	138.67333333333	0
bin	138.70666666667	0
bin	138.74	0
bin	138.77333333333	0
bin	138.80666666667	0
bin	138.84	0
statistic RandomGeometricGraph.rgnv[16] 	arrivalPerc:histogram
field count 1
field mean 1
field stddev nan
field sum 1
field sqrsum 1
field min 1
field max 1
attr interpolationmode  none
attr source  count(arrival)
attr title  "arrival perc, histogram"
bin	-INF	0
bin	0	0
bin	1	1
bin	2	0
statistic RandomGeometricGraph.rgnv[17] 	arrivalTime:histogram
field count 1
field mean 74.396
field stddev nan
field sum 74.396
field sqrsum 5534.764816
field min 74.396
field max 74.396
attr interpolationmode  none
attr source  arrivalTime
attr title  "arrival time, histogram"
bin	-INF	0
bin	73.896	0
bin	73.929333333333	0
bin	73.962666666667	0
bin	73.996	0
bin	74.029333333333	0
bin	74.062666666667	0
bin	74.096	0
bin	74.129333333333	0
bin	74.162666666667	0
bin	74.196	0
bin	74.229333333333	0
bin	74.262666666667	0
bin	74.296	0
bin	74.329333333333	0
bin	74.362666666667	0
bin	74.396	1
bin	74.429333333333	0
bin	74.462666666667	0
bin	74.496	0
bin	74.529333333333	0
bin	74.562666666667	0
bin	74.596	0
bin	74.629333333333	0
bin	74.662666666667	0
bin	74.696	0
bin	74.729333333333	0
bin	74.762666666667	0
bin	74.796	0
bin	74.829333333333	0
bin	74.862666666667	0
bin	74.896	0
statistic RandomGeometricGraph.rgnv[17] 	arrivalPerc:histogram
field count 1
field mean 1
field stddev nan
field sum 1
field sqrsum 1
field min 1
field max 1
attr interpolationmode  none
attr source  count(arrival)
attr title  "arrival perc, histogram"
bin	-INF	0
bin	0	0
bin	1	1
bin	2	0
statistic RandomGeometricGraph.rgnv[18] 	arrivalTime:histogram
field count 1
field mean 96.647
field stddev nan
field sum 96.647
field sqrsum 9340.642609
field min 96.647
field max 96.647
attr interpolationmode  none
attr source  arrivalTime
attr title  "arrival time, histogram"
bin	-INF	0
bin	96.147	0
bin	96.180333333333	0
bin	96.213666666667	0
bin	96.247	0
bin	96.280333333333	0
bin	96.313666666667	0
bin	96.347	0
bin	96.380333333333	0
bin	96.413666666667	0
bin	96.447	0
bin	96.480333333333	0
bin	96.513666666667	0
bin	96.547	0
bin	96.580333333333	0
bin	96.613666666667	0
bin	96.647	1
bin	96.680333333333	0
bin	96.713666666667	0
bin	96.747	0
bin	96.780333333333	0
bin	96.813666666667	0
bin	96.847	0
bin	96.880333333333	0
bin	96.913666666667	0
bin	96.947	0
bin	96.980333333333	0
bin	97.013666666667	0
bin	97.047	0
bin	97.080333333333	0
bin	97.113666666667	0
bin	97.147	0
statistic RandomGeometricGraph.rgnv[18] 	arrivalPerc:histogram
field count 1
field mean 1
field stddev nan
field sum 1
field sqrsum 1
field min 1
field max 1
attr interpolationmode  none
attr source  count(arrival)
attr title  "arrival perc, histogram"
bin	-INF	0
bin	0	0
bin	1	1
bin	2	0
statistic RandomGeometricGraph.rgnv[19] 	arrivalTime:histogram
field count 1
field mean 193.34
field stddev nan
field sum 193.34
field sqrsum 37380.3556
field min 193.34
field max 193.34
attr interpolationmode  none
attr source  arrivalTime
attr title  "arrival time, histogram"
bin	-INF	0
bin	192.84	0
bin	192.87333333333	0
bin	192.90666666667	0
bin	192.94	0
bin	192.97333333333	0
bin	193.00666666667	0
bin	193.04	0
bin	193.07333333333	0
bin	193.10666666667	0
bin	193.14	0
bin	193.17333333333	0
bin	193.20666666667	0
bin	193.24	0
bin	193.27333333333	0
bin	193.30666666667	0
bin	193.34	1
bin	193.37333333333	0
bin	193.40666666667	0
bin	193.44	0
bin	193.47333333333	0
bin	193.50666666667	0
bin	193.54	0
bin	193.57333333333	0
bin	193.60666666667	0
bin	193.64	0
bin	193.67333333333	0
bin	193.70666666667	0
bin	193.74	0
bin	193.77333333333	0
bin	193.80666666667	0
bin	193.84	0
statistic RandomGeometricGraph.rgnv[19] 	arrivalPerc:histogram
field count 1
field mean 1
field stddev nan
field sum 1
field sqrsum 1
field min 1
field max 1
attr interpolationmode  none
attr source  count(arrival)
attr title  "arrival perc, histogram"
bin	-INF	0
bin	0	0
bin	1	1
bin	2	0
statistic RandomGeometricGraph.rgnv[20] 	arrivalTime:histogram
field count 1
field mean 153.888
field stddev nan
field sum 153.888
field sqrsum 23681.516544
field min 153.888
field max 153.888
attr interpolationmode  none
attr source  arrivalTime
attr title  "arrival time, histogram"
bin	-INF	0
bin	153.388	0
bin	153.42133333333	0
bin	153.45466666667	0
bin	153.488	0
bin	153.52133333333	0
bin	153.55466666667	0
bin	153.588	0
bin	153.62133333333	0
bin	153.65466666667	0
bin	153.688	0
bin	153.72133333333	0
bin	153.75466666667	0
bin	153.788	0
bin	153.82133333333	0
bin	153.85466666667	0
bin	153.888	1
bin	153.92133333333	0
bin	153.95466666667	0
bin	153.988	0
bin	154.02133333333	0
bin	154.05466666667	0
bin	154.088	0
bin	154.12133333333	0
bin	154.15466666667	0
bin	154.188	0
bin	154.22133333333	0
bin	154.25466666667	0
bin	154.288	0
bin	154.32133333333	0
bin	154.35466666667	0
bin	154.388	0
statistic RandomGeometricGraph.rgnv[20] 	arrivalPerc:histogram
field count 1
field mean 1
field stddev nan
field sum 1
field sqrsum 1
field min 1
field max 1
attr interpolationmode  none
attr source  count(arrival)
attr title  "arrival perc, histogram"
bin	-INF	0
bin	0	0
bin	1	1
bin	2	0
statistic RandomGeometricGraph.rgnv[21] 	arrivalTime:histogram
field count 1
field mean 111.089
field stddev nan
field sum 111.089
field sqrsum 12340.765921
field min 111.089
field max 111.089
attr interpolationmode  none
attr source  arrivalTime
attr title  "arrival time, histogram"
bin	-INF	0
bin	110.589	0
bin	110.62233333333	0
bin	110.65566666667	0
bin	110.689	0
bin	110.72233333333	0
bin	110.75566666667	0
bin	110.789	0
bin	110.82233333333	0
bin	110.85566666667	0
bin	110.889	0
bin	110.92233333333	0
bin	110.95566666667	0
bin	110.989	0
bin	111.02233333333	0
bin	111.05566666667	0
bin	111.089	1
bin	111.12233333333	0
bin	111.15566666667	0
bin	111.189	0
bin	111.22233333333	0
bin	111.25566666667	0
bin	111.289	0
bin	111.32233333333	0
bin	111.35566666667	0
bin	111.389	0
bin	111.42233333333	0
bin	111.45566666667	0
bin	111.489	0
bin	111.52233333333	0
bin	111.55566666667	0
bin	111.589	0
statistic RandomGeometricGraph.rgnv[21] 	arrivalPerc:histogram
field count 1
field mean 1
field stddev nan
field sum 1
field sqrsum 1
field min 1
field max 1
attr interpolationmode  none
attr source  count(arrival)
attr title  "arrival perc, histogram"
bin	-INF	0
bin	0	0
bin	1	1
bin	2	0
statistic RandomGeometricGraph.rgnv[22] 	arrivalTime:histogram
field count 1
field mean 171.109
field stddev nan
field sum 171.109
field sqrsum 29278.289881
field min 171.109
field max 171.109
attr interpolationmode  none
attr source  arrivalTime
attr title  "arrival time, histogram"
bin	-INF	0
bin	170.609	0
bin	170.64233333333	0
bin	170.67566666667	0
bin	170.709	0
bin	170.74233333333	0
bin	170.77566666667	0
bin	170.809	0
bin	170.84233333333	0
bin	170.87566666667	0
bin	170.909	0
bin	170.94233333333	0
bin	170.97566666667	0
bin	171.009	0
bin	171.04233333333	0
bin	171.07566666667	0
bin	171.109	1
bin	171.14233333333	0
bin	171.17566666667	0
bin	171.209	0
bin	171.24233333333	0
bin	171.27566666667	0
bin	171.309	0
bin	171.34233333333	0
bin	171.37566666667	0
bin	171.409	0
bin	171.44233333333	0
bin	171.47566666667	0
bin	171.509	0
bin	171.54233333333	0
bin	171.57566666667	0
bin	171.609	0
statistic RandomGeometricGraph.rgnv[22] 	arrivalPerc:histogram
field count 1
field mean 1
field stddev nan
field sum 1
field sqrsum 1
field min 1
field max 1
attr interpolationmode  none
attr source  count(arrival)
attr title  "arrival perc, histogram"
bin	-INF	0
bin	0	0
bin	1	1
bin	2	0
statistic RandomGeometricGraph.rgnv[23] 	arrivalTime:histogram
field count 1
field mean 91.637
field stddev nan
field sum 91.637
field sqrsum 8397.339769
field min 91.637
field max 91.637
attr interpolationmode  none
attr source  arrivalTime
attr title  "arrival time, histogram"
bin	-INF	0
bin	91.137	0
bin	91.170333333333	0
bin	91.203666666667	0
bin	91.237	0
bin	91.270333333333	0
bin	91.303666666667	0
bin	91.337	0
bin	91.370333333333	0
bin	91.403666666667	0
bin	91.437	0
bin	91.470333333333	0
bin	91.503666666667	0
bin	91.537	0
bin	91.570333333333	0
bin	91.603666666667	0
bin	91.637	1
bin	91.670333333333	0
bin	91.703666666667	0
bin	91.737	0
bin	91.770333333333	0
bin	91.803666666667	0
bin	91.837	0
bin	91.870333333333	0
bin	91.903666666667	0
bin	91.937	0
bin	91.970333333333	0
bin	92.003666666667	0
bin	92.037	0
bin	92.070333333333	0
bin	92.103666666667	0
bin	92.137	0
statistic RandomGeometricGraph.rgnv[23] 	arrivalPerc:histogram
field count 1
field mean 1
field stddev nan
field sum 1
field sqrsum 1
field min 1
field max 1
attr interpolationmode  none
attr source  count(arrival)
attr title  "arrival perc, histogram"
bin	-INF	0
bin	0	0
bin	1	1
bin	2	0
statistic RandomGeometricGraph.rgnv[24] 	arrivalTime:histogram
field count 1
field mean 121.089
field stddev nan
field sum 121.089
field sqrsum 14662.545921
field min 121.089
field max 121.089
attr interpolationmode  none
attr source  arrivalTime
attr title  "arrival time, histogram"
bin	-INF	0
bin	120.589	0
bin	120.62233333333	0
bin	120.65566666667	0
bin	120.689	0
bin	120.72233333333	0
bin	120.75566666667	0
bin	120.789	0
bin	120.82233333333	0
bin	120.85566666667	0
bin	120.889	0
bin	120.92233333333	0
bin	120.95566666667	0
bin	120.989	0
bin	121.02233333333	0
bin	121.05566666667	0
bin	121.089	1
bin	121.12233333333	0
bin	121.15566666667	0
bin	121.189	0
bin	121.22233333333	0
bin	121.25566666667	0
bin	121.289	0
bin	121.32233333333	0
bin	121.35566666667	0
bin	121.389	0
bin	121.42233333333	0
bin	121.45566666667	0
bin	121.489	0
bin	121.52233333333	0
bin	121.55566666667	0
bin	121.589	0
statistic RandomGeometricGraph.rgnv[24] 	arrivalPerc:histogram
field count 1
field mean 1
field stddev nan
field sum 1
field sqrsum 1
field min 1
field max 1
attr interpolationmode  none
attr source  count(arrival)
attr title  "arrival perc, histogram"
bin	-INF	0
bin	0	0
bin	1	1
bin	2	0
statistic RandomGeometricGraph.rgnv[25] 	arrivalTime:histogram
field count 1
field mean 111.667
field stddev nan
field sum 111.667
field sqrsum 12469.518889
field min 111.667
field max 111.667
attr interpolationmode  none
attr source  arrivalTime
attr title  "arrival time, histogram"
bin	-INF	0
bin	111.167	0
bin	111.20033333333	0
bin	111.23366666667	0
bin	111.267	0
bin	111.30033333333	0
bin	111.33366666667	0
bin	111.367	0
bin	111.40033333333	0
bin	111.43366666667	0
bin	111.467	0
bin	111.50033333333	0
bin	111.53366666667	0
bin	111.567	0
bin	111.60033333333	0
bin	111.63366666667	0
bin	111.667	1
bin	111.70033333333	0
bin	111.73366666667	0
bin	111.767	0
bin	111.80033333333	0
bin	111.83366666667	0
bin	111.867	0
bin	111.90033333333	0
bin	111.93366666667	0
bin	111.967	0
bin	112.00033333333	0
bin	112.03366666667	0
bin	112.067	0
bin	112.10033333333	0
bin	112.13366666667	0
bin	112.167	0
statistic RandomGeometricGraph.rgnv[25] 	arrivalPerc:histogram
field count 1
field mean 1
field stddev nan
field sum 1
field sqrsum 1
field min 1
field max 1
attr interpolationmode  none
attr source  count(arrival)
attr title  "arrival perc, histogram"
bin	-INF	0
bin	0	0
bin	1	1
bin	2	0
statistic RandomGeometricGraph.rgnv[26] 	arrivalTime:histogram
field count 1
field mean 143.34
field stddev nan
field sum 143.34
field sqrsum 20546.3556
field min 143.34
field max 143.34
attr interpolationmode  none
attr source  arrivalTime
attr title  "arrival time, histogram"
bin	-INF	0
bin	142.84	0
bin	142.87333333333	0
bin	142.90666666667	0
bin	142.94	0
bin	142.97333333333	0
bin	143.00666666667	0
bin	143.04	0
bin	143.07333333333	0
bin	143.10666666667	0
bin	143.14	0
bin	143.17333333333	0
bin	143.20666666667	0
bin	143.24	0
bin	143.27333333333	0
bin	143.30666666667	0
bin	143.34	1
bin	143.37333333333	0
bin	143.40666666667	0
bin	143.44	0
bin	143.47333333333	0
bin	143.50666666667	0
bin	143.54	0
bin	143.57333333333	0
bin	143.60666666667	0
bin	143.64	0
bin	143.67333333333	0
bin	143.70666666667	0
bin	143.74	0
bin	143.77333333333	0
bin	143.80666666667	0
bin	143.84	0
statistic RandomGeometricGraph.rgnv[26] 	arrivalPerc:histogram
field count 1
field mean 1
field stddev nan
field sum 1
field sqrsum 1
field min 1
field max 1
attr interpolationmode  none
attr source  count(arrival)
attr title  "arrival perc, histogram"
bin	-INF	0
bin	0	0
bin	1	1
bin	2	0
statistic RandomGeometricGraph.rgnv[27] 	arrivalTime:histogram
field count 1
field mean 151.109
field stddev nan
field sum 151.109
field sqrsum 22833.929881
field min 151.109
field max 151.109
attr interpolationmode  none
attr source  arrivalTime
attr title  "arrival time, histogram"
bin	-INF	0
bin	150.609	0
bin	150.64233333333	0
bin	150.67566666667	0
bin	150.709	0
bin	150.74233333333	0
bin	150.77566666667	0
bin	150.809	0
bin	150.84233333333	0
bin	150.87566666667	0
bin	150.909	0
bin	150.94233333333	0
bin	150.97566666667	0
bin	151.009	0
bin	151.04233333333	0
bin	151.07566666667	0
bin	151.109	1
bin	151.14233333333	0
bin	151.17566666667	0
bin	151.209	0
bin	151.24233333333	0
bin	151.27566666667	0
bin	151.309	0
bin	151.34233333333	0
bin	151.37566666667	0
bin	151.409	0
bin	151.44233333333	0
bin	151.47566666667	0
bin	151.509	0
bin	151.54233333333	0
bin	151.57566666667	0
bin	151.609	0
statistic RandomGeometricGraph.rgnv[27] 	arrivalPerc:histogram
field count 1
field mean 1
field stddev nan
field sum 1
field sqrsum 1
field min 1
field max 1
attr interpolationmode  none
attr source  count(arrival)
attr title  "arrival perc, histogram"
bin	-INF	0
bin	0	0
bin	1	1
bin	2	0
statistic RandomGeometricGraph.rgnv[28] 	arrivalTime:histogram
field count 1
field mean 212.244
field stddev nan
field sum 212.244
field sqrsum 45047.515536
field min 212.244
field max 212.244
attr interpolationmode  none
attr source  arrivalTime
attr title  "arrival time, histogram"
bin	-INF	0
bin	211.744	0
bin	211.77733333333	0
bin	211.81066666667	0
bin	211.844	0
bin	211.87733333333	0
bin	211.91066666667	0
bin	211.944	0
bin	211.97733333333	0
bin	212.01066666667	0
bin	212.044	0
bin	212.07733333333	0
bin	212.11066666667	0
bin	212.144	0
bin	212.17733333333	0
bin	212.21066666667	0
bin	212.244	1
bin	212.27733333333	0
bin	212.31066666667	0
bin	212.344	0
bin	212.37733333333	0
bin	212.41066666667	0
bin	212.444	0
bin	212.47733333333	0
bin	212.51066666667	0
bin	212.544	0
bin	212.57733333333	0
bin	212.61066666667	0
bin	212.644	0
bin	212.67733333333	0
bin	212.71066666667	0
bin	212.744	0
statistic RandomGeometricGraph.rgnv[28] 	arrivalPerc:histogram
field count 1
field mean 1
field stddev nan
field sum 1
field sqrsum 1
field min 1
field max 1
attr interpolationmode  none
attr source  count(arrival)
attr title  "arrival perc, histogram"
bin	-INF	0
bin	0	0
bin	1	1
bin	2	0
statistic RandomGeometricGraph.rgnv[29] 	arrivalTime:histogram
field count 1
field mean 86.627
field stddev nan
field sum 86.627
field sqrsum 7504.237129
field min 86.627
field max 86.627
attr interpolationmode  none
attr source  arrivalTime
attr title  "arrival time, histogram"
bin	-INF	0
bin	86.127	0
bin	86.160333333333	0
bin	86.193666666667	0
bin	86.227	0
bin	86.260333333333	0
bin	86.293666666667	0
bin	86.327	0
bin	86.360333333333	0
bin	86.393666666667	0
bin	86.427	0
bin	86.460333333333	0
bin	86.493666666667	0
bin	86.527	0
bin	86.560333333333	0
bin	86.593666666667	0
bin	86.627	1
bin	86.660333333333	0
bin	86.693666666667	0
bin	86.727	0
bin	86.760333333333	0
bin	86.793666666667	0
bin	86.827	0
bin	86.860333333333	0
bin	86.893666666667	0
bin	86.927	0
bin	86.960333333333	0
bin	86.993666666667	0
bin	87.027	0
bin	87.060333333333	0
bin	87.093666666667	0
bin	87.127	0
statistic RandomGeometricGraph.rgnv[29] 	arrivalPerc:histogram
field count 1
field mean 1
field stddev nan
field sum 1
field sqrsum 1
field min 1
field max 1
attr interpolationmode  none
attr source  count(arrival)
attr title  "arrival perc, histogram"
bin	-INF	0
bin	0	0
bin	1	1
bin	2	0
statistic RandomGeometricGraph.rgnv[30] 	arrivalTime:histogram
field count 1
field mean 210.013
field stddev nan
field sum 210.013
field sqrsum 44105.460169
field min 210.013
field max 210.013
attr interpolationmode  none
attr source  arrivalTime
attr title  "arrival time, histogram"
bin	-INF	0
bin	209.513	0
bin	209.54633333333	0
bin	209.57966666667	0
bin	209.613	0
bin	209.64633333333	0
bin	209.67966666667	0
bin	209.713	0
bin	209.74633333333	0
bin	209.77966666667	0
bin	209.813	0
bin	209.84633333333	0
bin	209.87966666667	0
bin	209.913	0
bin	209.94633333333	0
bin	209.97966666667	0
bin	210.013	1
bin	210.04633333333	0
bin	210.07966666667	0
bin	210.113	0
bin	210.14633333333	0
bin	210.17966666667	0
bin	210.213	0
bin	210.24633333333	0
bin	210.27966666667	0
bin	210.313	0
bin	210.34633333333	0
bin	210.37966666667	0
bin	210.413	0
bin	210.44633333333	0
bin	210.47966666667	0
bin	210.513	0
statistic RandomGeometricGraph.rgnv[30] 	arrivalPerc:histogram
field count 1
field mean 1
field stddev nan
field sum 1
field sqrsum 1
field min 1
field max 1
attr interpolationmode  none
attr source  count(arrival)
attr title  "arrival perc, histogram"
bin	-INF	0
bin	0	0
bin	1	1
bin	2	0
statistic RandomGeometricGraph.rgnv[31] 	arrivalTime:histogram
field count 1
field mean 121.099
field stddev nan
field sum 121.099
field sqrsum 14664.967801
field min 121.099
field max 121.099
attr interpolationmode  none
attr source  arrivalTime
attr title  "arrival time, histogram"
bin	-INF	0
bin	120.599	0
bin	120.63233333333	0
bin	120.66566666667	0
bin	120.699	0
bin	120.73233333333	0
bin	120.76566666667	0
bin	120.799	0
bin	120.83233333333	0
bin	120.86566666667	0
bin	120.899	0
bin	120.93233333333	0
bin	120.96566666667	0
bin	120.999	0
bin	121.03233333333	0
bin	121.06566666667	0
bin	121.099	1
bin	121.13233333333	0
bin	121.16566666667	0
bin	121.199	0
bin	121.23233333333	0
bin	121.26566666667	0
bin	121.299	0
bin	121.33233333333	0
bin	121.36566666667	0
bin	121.399	0
bin	121.43233333333	0
bin	121.46566666667	0
bin	121.499	0
bin	121.53233333333	0
bin	121.56566666667	0
bin	121.599	0
statistic RandomGeometricGraph.rgnv[31] 	arrivalPerc:histogram
field count 1
field mean 1
field stddev nan
field sum 1
field sqrsum 1
field min 1
field max 1
attr interpolationmode  none
attr source  count(arrival)
attr title  "arrival perc, histogram"
bin	-INF	0
bin	0	0
bin	1	1
bin	2	0
statistic RandomGeometricGraph.rgnv[32] 	arrivalTime:histogram
field count 1
field mean 185.561
field stddev nan
field sum 185.561
field sqrsum 34432.884721
field min 185.561
field max 185.561
attr interpolationmode  none
attr source  arrivalTime
attr title  "arrival time, histogram"
bin	-INF	0
bin	185.061	0
bin	185.09433333333	0
bin	185.12766666667	0
bin	185.161	0
bin	185.19433333333	0
bin	185.22766666667	0
bin	185.261	0
bin	185.29433333333	0
bin	185.32766666667	0
bin	185.361	0
bin	185.39433333333	0
bin	185.42766666667	0
bin	185.461	0
bin	185.49433333333	0
bin	185.52766666667	0
bin	185.561	1
bin	185.59433333333	0
bin	185.62766666667	0
bin	185.661	0
bin	185.69433333333	0
bin	185.72766666667	0
bin	185.761	0
bin	185.79433333333	0
bin	185.82766666667	0
bin	185.861	0
bin	185.89433333333	0
bin	185.92766666667	0
bin	185.961	0
bin	185.99433333333	0
bin	186.02766666667	0
bin	186.061	0
statistic RandomGeometricGraph.rgnv[32] 	arrivalPerc:histogram
field count 1
field mean 1
field stddev nan
field sum 1
field sqrsum 1
field min 1
field max 1
attr interpolationmode  none
attr source  count(arrival)
attr title  "arrival perc, histogram"
bin	-INF	0
bin	0	0
bin	1	1
bin	2	0
statistic RandomGeometricGraph.rgnv[33] 	arrivalTime:histogram
field count 1
field mean 204.485
field stddev nan
field sum 204.485
field sqrsum 41814.115225
field min 204.485
field max 204.485
attr interpolationmode  none
attr source  arrivalTime
attr title  "arrival time, histogram"
bin	-INF	0
bin	203.985	0
bin	204.01833333333	0
bin	204.05166666667	0
bin	204.085	0
bin	204.11833333333	0
bin	204.15166666667	0
bin	204.185	0
bin	204.21833333333	0
bin	204.25166666667	0
bin	204.285	0
bin	204.31833333333	0
bin	204.35166666667	0
bin	204.385	0
bin	204.41833333333	0
bin	204.45166666667	0
bin	204.485	1
bin	204.51833333333	0
bin	204.55166666667	0
bin	204.585	0
bin	204.61833333333	0
bin	204.65166666667	0
bin	204.685	0
bin	204.71833333333	0
bin	204.75166666667	0
bin	204.785	0
bin	204.81833333333	0
bin	204.85166666667	0
bin	204.885	0
bin	204.91833333333	0
bin	204.95166666667	0
bin	204.985	0
statistic RandomGeometricGraph.rgnv[33] 	arrivalPerc:histogram
field count 1
field mean 1
field stddev nan
field sum 1
field sqrsum 1
field min 1
field max 1
attr interpolationmode  none
attr source  count(arrival)
attr title  "arrival perc, histogram"
bin	-INF	0
bin	0	0
bin	1	1
bin	2	0
statistic RandomGeometricGraph.rgnv[34] 	arrivalTime:histogram
field count 1
field mean 135.551
field stddev nan
field sum 135.551
field sqrsum 18374.073601
field min 135.551
field max 135.551
attr interpolationmode  none
attr source  arrivalTime
attr title  "arrival time, histogram"
bin	-INF	0
bin	135.051	0
bin	135.08433333333	0
bin	135.11766666667	0
bin	135.151	0
bin	135.18433333333	0
bin	135.21766666667	0
bin	135.251	0
bin	135.28433333333	0
bin	135.31766666667	0
bin	135.351	0
bin	135.38433333333	0
bin	135.41766666667	0
bin	135.451	0
bin	135.48433333333	0
bin	135.51766666667	0
bin	135.551	1
bin	135.58433333333	0
bin	135.61766666667	0
bin	135.651	0
bin	135.68433333333	0
bin	135.71766666667	0
bin	135.751	0
bin	135.78433333333	0
bin	135.81766666667	0
bin	135.851	0
bin	135.88433333333	0
bin	135.91766666667	0
bin	135.951	0
bin	135.98433333333	0
bin	136.01766666667	0
bin	136.051	0
statistic RandomGeometricGraph.rgnv[34] 	arrivalPerc:histogram
field count 1
field mean 1
field stddev nan
field sum 1
field sqrsum 1
field min 1
field max 1
attr interpolationmode  none
attr source  count(arrival)
attr title  "arrival perc, histogram"
bin	-INF	0
bin	0	0
bin	1	1
bin	2	0
statistic RandomGeometricGraph.rgnv[35] 	arrivalTime:histogram
field count 1
field mean 126.099
field stddev nan
field sum 126.099
field sqrsum 15900.957801
field min 126.099
field max 126.099
attr interpolationmode  none
attr source  arrivalTime
attr title  "arrival time, histogram"
bin	-INF	0
bin	125.599	0
bin	125.63233333333	0
bin	125.66566666667	0
bin	125.699	0
bin	125.73233333333	0
bin	125.76566666667	0
bin	125.799	0
bin	125.83233333333	0
bin	125.86566666667	0
bin	125.899	0
bin	125.93233333333	0
bin	125.96566666667	0
bin	125.999	0
bin	126.03233333333	0
bin	126.06566666667	0
bin	126.099	1
bin	126.13233333333	0
bin	126.16566666667	0
bin	126.199	0
bin	126.23233333333	0
bin	126.26566666667	0
bin	126.299	0
bin	126.33233333333	0
bin	126.36566666667	0
bin	126.399	0
bin	126.43233333333	0
bin	126.46566666667	0
bin	126.499	0
bin	126.53233333333	0
bin	126.56566666667	0
bin	126.599	0
statistic RandomGeometricGraph.rgnv[35] 	arrivalPerc:histogram
field count 1
field mean 1
field stddev nan
field sum 1
field sqrsum 1
field min 1
field max 1
attr interpolationmode  none
attr source  count(arrival)
attr title  "arrival perc, histogram"
bin	-INF	0
bin	0	0
bin	1	1
bin	2	0
statistic RandomGeometricGraph.rgnv[36] 	arrivalTime:histogram
field count 1
field mean 74.396
field stddev nan
field sum 74.396
field sqrsum 5534.764816
field min 74.396
field max 74.396
attr interpolationmode  none
attr source  arrivalTime
attr title  "arrival time, histogram"
bin	-INF	0
bin	73.896	0
bin	73.929333333333	0
bin	73.962666666667	0
bin	73.996	0
bin	74.029333333333	0
bin	74.062666666667	0
bin	74.096	0
bin	74.129333333333	0
bin	74.162666666667	0
bin	74.196	0
bin	74.229333333333	0
bin	74.262666666667	0
bin	74.296	0
bin	74.329333333333	0
bin	74.362666666667	0
bin	74.396	1
bin	74.429333333333	0
bin	74.462666666667	0
bin	74.496	0
bin	74.529333333333	0
bin	74.562666666667	0
bin	74.596	0
bin	74.629333333333	0
bin	74.662666666667	0
bin	74.696	0
bin	74.729333333333	0
bin	74.762666666667	0
bin	74.796	0
bin	74.829333333333	0
bin	74.862666666667	0
bin	74.896	0
statistic RandomGeometricGraph.rgnv[36] 	arrivalPerc:histogram
field count 1
field mean 1
field stddev nan
field sum 1
field sqrsum 1
field min 1
field max 1
attr interpolationmode  none
attr source  count(arrival)
attr title  "arrival perc, histogram"
bin	-INF	0
bin	0	0
bin	1	1
bin	2	0
statistic RandomGeometricGraph.rgnv[37] 	arrivalTime:histogram
field count 1
field mean 182.254
field stddev nan
field sum 182.254
field sqrsum 33216.520516
field min 182.254
field max 182.254
attr interpolationmode  none
attr source  arrivalTime
attr title  "arrival time, histogram"
bin	-INF	0
bin	181.754	0
bin	181.78733333333	0
bin	181.82066666667	0
bin	181.854	0
bin	181.88733333333	0
bin	181.92066666667	0
bin	181.954	0
bin	181.98733333333	0
bin	182.02066666667	0
bin	182.054	0
bin	182.08733333333	0
bin	182.12066666667	0
bin	182.154	0
bin	182.18733333333	0
bin	182.22066666667	0
bin	182.254	1
bin	182.28733333333	0
bin	182.32066666667	0
bin	182.354	0
bin	182.38733333333	0
bin	182.42066666667	0
bin	182.454	0
bin	182.48733333333	0
bin	182.52066666667	0
bin	182.554	0
bin	182.58733333333	0
bin	182.62066666667	0
bin	182.654	0
bin	182.68733333333	0
bin	182.72066666667	0
bin	182.754	0
statistic RandomGeometricGraph.rgnv[37] 	arrivalPerc:histogram
field count 1
field mean 1
field stddev nan
field sum 1
field sqrsum 1
field min 1
field max 1
attr interpolationmode  none
attr source  count(arrival)
attr title  "arrival perc, histogram"
bin	-INF	0
bin	0	0
bin	1	1
bin	2	0
statistic RandomGeometricGraph.rgnv[38] 	arrivalTime:histogram
field count 1
field mean 133.32
field stddev nan
field sum 133.32
field sqrsum 17774.2224
field min 133.32
field max 133.32
attr interpolationmode  none
attr source  arrivalTime
attr title  "arrival time, histogram"
bin	-INF	0
bin	132.82	0
bin	132.85333333333	0
bin	132.88666666667	0
bin	132.92	0
bin	132.95333333333	0
bin	132.98666666667	0
bin	133.02	0
bin	133.05333333333	0
bin	133.08666666667	0
bin	133.12	0
bin	133.15333333333	0
bin	133.18666666667	0
bin	133.22	0
bin	133.25333333333	0
bin	133.28666666667	0
bin	133.32	1
bin	133.35333333333	0
bin	133.38666666667	0
bin	133.42	0
bin	133.45333333333	0
bin	133.48666666667	0
bin	133.52	0
bin	133.55333333333	0
bin	133.58666666667	0
bin	133.62	0
bin	133.65333333333	0
bin	133.68666666667	0
bin	133.72	0
bin	133.75333333333	0
bin	133.78666666667	0
bin	133.82	0
statistic RandomGeometricGraph.rgnv[38] 	arrivalPerc:histogram
field count 1
field mean 1
field stddev nan
field sum 1
field sqrsum 1
field min 1
field max 1
attr interpolationmode  none
attr source  count(arrival)
attr title  "arrival perc, histogram"
bin	-INF	0
bin	0	0
bin	1	1
bin	2	0
statistic RandomGeometricGraph.rgnv[39] 	arrivalTime:histogram
field count 1
field mean 238.937
field stddev nan
field sum 238.937
field sqrsum 57090.889969
field min 238.937
field max 238.937
attr interpolationmode  none
attr source  arrivalTime
attr title  "arrival time, histogram"
bin	-INF	0
bin	238.437	0
bin	238.47033333333	0
bin	238.50366666667	0
bin	238.537	0
bin	238.57033333333	0
bin	238.60366666667	0
bin	238.637	0
bin	238.67033333333	0
bin	238.70366666667	0
bin	238.737	0
bin	238.77033333333	0
bin	238.80366666667	0
bin	238.837	0
bin	238.87033333333	0
bin	238.90366666667	0
bin	238.937	1
bin	238.97033333333	0
bin	239.00366666667	0
bin	239.037	0
bin	239.07033333333	0
bin	239.10366666667	0
bin	239.137	0
bin	239.17033333333	0
bin	239.20366666667	0
bin	239.237	0
bin	239.27033333333	0
bin	239.30366666667	0
bin	239.337	0
bin	239.37033333333	0
bin	239.40366666667	0
bin	239.437	0
statistic RandomGeometricGraph.rgnv[39] 	arrivalPerc:histogram
field count 1
field mean 1
field stddev nan
field sum 1
field sqrsum 1
field min 1
field max 1
attr interpolationmode  none
attr source  count(arrival)
attr title  "arrival perc, histogram"
bin	-INF	0
bin	0	0
bin	1	1
bin	2	0
statistic RandomGeometricGraph.rgnv[40] 	arrivalTime:histogram
field count 1
field mean 210.013
field stddev nan
field sum 210.013
field sqrsum 44105.460169
field min 210.013
field max 210.013
attr interpolationmode  none
attr source  arrivalTime
attr title  "arrival time, histogram"
bin	-INF	0
bin	209.513	0
bin	209.54633333333	0
bin	209.57966666667	0
bin	209.613	0
bin	209.64633333333	0
bin	209.67966666667	0
bin	209.713	0
bin	209.74633333333	0
bin	209.77966666667	0
bin	209.813	0
bin	209.84633333333	0
bin	209.87966666667	0
bin	209.913	0
bin	209.94633333333	0
bin	209.97966666667	0
bin	210.013	1
bin	210.04633333333	0
bin	210.07966666667	0
bin	210.113	0
bin	210.14633333333	0
bin	210.17966666667	0
bin	210.213	0
bin	210.24633333333	0
bin	210.27966666667	0
bin	210.313	0
bin	210.34633333333	0
bin	210.37966666667	0
bin	210.413	0
bin	210.44633333333	0
bin	210.47966666667	0
bin	210.513	0
statistic RandomGeometricGraph.rgnv[40] 	arrivalPerc:histogram
field count 1
field mean 1
field stddev nan
field sum 1
field sqrsum 1
field min 1
field max 1
attr interpolationmode  none
attr source  count(arrival)
attr title  "arrival perc, histogram"
bin	-INF	0
bin	0	0
bin	1	1
bin	2	0
statistic RandomGeometricGraph.rgnv[41] 	arrivalTime:histogram
field count 1
field mean 101.647
field stddev nan
field sum 101.647
field sqrsum 10332.112609
field min 101.647
field max 101.647
attr interpolationmode  none
attr source  arrivalTime
attr title  "arrival time, histogram"
bin	-INF	0
bin	101.147	0
bin	101.18033333333	0
bin	101.21366666667	0
bin	101.247	0
bin	101.28033333333	0
bin	101.31366666667	0
bin	101.347	0
bin	101.38033333333	0
bin	101.41366666667	0
bin	101.447	0
bin	101.48033333333	0
bin	101.51366666667	0
bin	101.547	0
bin	101.58033333333	0
bin	101.61366666667	0
bin	101.647	1
bin	101.68033333333	0
bin	101.71366666667	0
bin	101.747	0
bin	101.78033333333	0
bin	101.81366666667	0
bin	101.847	0
bin	101.88033333333	0
bin	101.91366666667	0
bin	101.947	0
bin	101.98033333333	0
bin	102.01366666667	0
bin	102.047	0
bin	102.08033333333	0
bin	102.11366666667	0
bin	102.147	0
statistic RandomGeometricGraph.rgnv[41] 	arrivalPerc:histogram
field count 1
field mean 1
field stddev nan
field sum 1
field sqrsum 1
field min 1
field max 1
attr interpolationmode  none
attr source  count(arrival)
attr title  "arrival perc, histogram"
bin	-INF	0
bin	0	0
bin	1	1
bin	2	0
statistic RandomGeometricGraph.rgnv[42] 	arrivalTime:histogram
field count 1
field mean 160.023
field stddev nan
field sum 160.023
field sqrsum 25607.360529
field min 160.023
field max 160.023
attr interpolationmode  none
attr source  arrivalTime
attr title  "arrival time, histogram"
bin	-INF	0
bin	159.523	0
bin	159.55633333333	0
bin	159.58966666667	0
bin	159.623	0
bin	159.65633333333	0
bin	159.68966666667	0
bin	159.723	0
bin	159.75633333333	0
bin	159.78966666667	0
bin	159.823	0
bin	159.85633333333	0
bin	159.88966666667	0
bin	159.923	0
bin	159.95633333333	0
bin	159.98966666667	0
bin	160.023	1
bin	160.05633333333	0
bin	160.08966666667	0
bin	160.123	0
bin	160.15633333333	0
bin	160.18966666667	0
bin	160.223	0
bin	160.25633333333	0
bin	160.28966666667	0
bin	160.323	0
bin	160.35633333333	0
bin	160.38966666667	0
bin	160.423	0
bin	160.45633333333	0
bin	160.48966666667	0
bin	160.523	0
statistic RandomGeometricGraph.rgnv[42] 	arrivalPerc:histogram
field count 1
field mean 1
field stddev nan
field sum 1
field sqrsum 1
field min 1
field max 1
attr interpolationmode  none
attr source  count(arrival)
attr title  "arrival perc, histogram"
bin	-INF	0
bin	0	0
bin	1	1
bin	2	0
statistic RandomGeometricGraph.rgnv[43] 	arrivalTime:histogram
field count 1
field mean 74.406
field stddev nan
field sum 74.406
field sqrsum 5536.252836
field min 74.406
field max 74.406
attr interpolationmode  none
attr source  arrivalTime
attr title  "arrival time, histogram"
bin	-INF	0
bin	73.906	0
bin	73.939333333333	0
bin	73.972666666667	0
bin	74.006	0
bin	74.039333333333	0
bin	74.072666666667	0
bin	74.106	0
bin	74.139333333333	0
bin	74.172666666667	0
bin	74.206	0
bin	74.239333333333	0
bin	74.272666666667	0
bin	74.306	0
bin	74.339333333333	0
bin	74.372666666667	0
bin	74.406	1
bin	74.439333333333	0
bin	74.472666666667	0
bin	74.506	0
bin	74.539333333333	0
bin	74.572666666667	0
bin	74.606	0
bin	74.639333333333	0
bin	74.672666666667	0
bin	74.706	0
bin	74.739333333333	0
bin	74.772666666667	0
bin	74.806	0
bin	74.839333333333	0
bin	74.872666666667	0
bin	74.906	0
statistic RandomGeometricGraph.rgnv[43] 	arrivalPerc:histogram
field count 1
field mean 1
field stddev nan
field sum 1
field sqrsum 1
field min 1
field max 1
attr interpolationmode  none
attr source  count(arrival)
attr title  "arrival perc, histogram"
bin	-INF	0
bin	0	0
bin	1	1
bin	2	0
statistic RandomGeometricGraph.rgnv[44] 	arrivalTime:histogram
field count 1
field mean 131.109
field stddev nan
field sum 131.109
field sqrsum 17189.569881
field min 131.109
field max 131.109
attr interpolationmode  none
attr source  arrivalTime
attr title  "arrival time, histogram"
bin	-INF	0
bin	130.609	0
bin	130.64233333333	0
bin	130.67566666667	0
bin	130.709	0
bin	130.74233333333	0
bin	130.77566666667	0
bin	130.809	0
bin	130.84233333333	0
bin	130.87566666667	0
bin	130.909	0
bin	130.94233333333	0
bin	130.97566666667	0
bin	131.009	0
bin	131.04233333333	0
bin	131.07566666667	0
bin	131.109	1
bin	131.14233333333	0
bin	131.17566666667	0
bin	131.209	0
bin	131.24233333333	0
bin	131.27566666667	0
bin	131.309	0
bin	131.34233333333	0
bin	131.37566666667	0
bin	131.409	0
bin	131.44233333333	0
bin	131.47566666667	0
bin	131.509	0
bin	131.54233333333	0
bin	131.57566666667	0
bin	131.609	0
statistic RandomGeometricGraph.rgnv[44] 	arrivalPerc:histogram
field count 1
field mean 1
field stddev nan
field sum 1
field sqrsum 1
field min 1
field max 1
attr interpolationmode  none
attr source  count(arrival)
attr title  "arrival perc, histogram"
bin	-INF	0
bin	0	0
bin	1	1
bin	2	0
statistic RandomGeometricGraph.rgnv[45] 	arrivalTime:histogram
field count 1
field mean 67.185
field stddev nan
field sum 67.185
field sqrsum 4513.824225
field min 67.185
field max 67.185
attr interpolationmode  none
attr source  arrivalTime
attr title  "arrival time, histogram"
bin	-INF	0
bin	66.685	0
bin	66.718333333333	0
bin	66.751666666667	0
bin	66.785	0
bin	66.818333333333	0
bin	66.851666666667	0
bin	66.885	0
bin	66.918333333333	0
bin	66.951666666667	0
bin	66.985	0
bin	67.018333333333	0
bin	67.051666666667	0
bin	67.085	0
bin	67.118333333333	0
bin	67.151666666667	0
bin	67.185	1
bin	67.218333333333	0
bin	67.251666666667	0
bin	67.285	0
bin	67.318333333333	0
bin	67.351666666667	0
bin	67.385	0
bin	67.418333333333	0
bin	67.451666666667	0
bin	67.485	0
bin	67.518333333333	0
bin	67.551666666667	0
bin	67.585	0
bin	67.618333333333	0
bin	67.651666666667	0
bin	67.685	0
statistic RandomGeometricGraph.rgnv[45] 	arrivalPerc:histogram
field count 1
field mean 1
field stddev nan
field sum 1
field sqrsum 1
field min 1
field max 1
attr interpolationmode  none
attr source  count(arrival)
attr title  "arrival perc, histogram"
bin	-INF	0
bin	0	0
bin	1	1
bin	2	0
statistic RandomGeometricGraph.rgnv[46] 	arrivalTime:histogram
field count 1
field mean 136.099
field stddev nan
field sum 136.099
field sqrsum 18522.937801
field min 136.099
field max 136.099
attr interpolationmode  none
attr source  arrivalTime
attr title  "arrival time, histogram"
bin	-INF	0
bin	135.599	0
bin	135.63233333333	0
bin	135.66566666667	0
bin	135.699	0
bin	135.73233333333	0
bin	135.76566666667	0
bin	135.799	0
bin	135.83233333333	0
bin	135.86566666667	0
bin	135.899	0
bin	135.93233333333	0
bin	135.96566666667	0
bin	135.999	0
bin	136.03233333333	0
bin	136.06566666667	0
bin	136.099	1
bin	136.13233333333	0
bin	136.16566666667	0
bin	136.199	0
bin	136.23233333333	0
bin	136.26566666667	0
bin	136.299	0
bin	136.33233333333	0
bin	136.36566666667	0
bin	136.399	0
bin	136.43233333333	0
bin	136.46566666667	0
bin	136.499	0
bin	136.53233333333	0
bin	136.56566666667	0
bin	136.599	0
statistic RandomGeometricGraph.rgnv[46] 	arrivalPerc:histogram
field count 1
field mean 1
field stddev nan
field sum 1
field sqrsum 1
field min 1
field max 1
attr interpolationmode  none
attr source  count(arrival)
attr title  "arrival perc, histogram"
bin	-INF	0
bin	0	0
bin	1	1
bin	2	0
statistic RandomGeometricGraph.rgnv[47] 	arrivalTime:histogram
field count 1
field mean 62.165
field stddev nan
field sum 62.165
field sqrsum 3864.487225
field min 62.165
field max 62.165
attr interpolationmode  none
attr source  arrivalTime
attr title  "arrival time, histogram"
bin	-INF	0
bin	61.665	0
bin	61.698333333333	0
bin	61.731666666667	0
bin	61.765	0
bin	61.798333333333	0
bin	61.831666666667	0
bin	61.865	0
bin	61.898333333333	0
bin	61.931666666667	0
bin	61.965	0
bin	61.998333333333	0
bin	62.031666666667	0
bin	62.065	0
bin	62.098333333333	0
bin	62.131666666667	0
bin	62.165	1
bin	62.198333333333	0
bin	62.231666666667	0
bin	62.265	0
bin	62.298333333333	0
bin	62.331666666667	0
bin	62.365	0
bin	62.398333333333	0
bin	62.431666666667	0
bin	62.465	0
bin	62.498333333333	0
bin	62.531666666667	0
bin	62.565	0
bin	62.598333333333	0
bin	62.631666666667	0
bin	62.665	0
statistic RandomGeometricGraph.rgnv[47] 	arrivalPerc:histogram
field count 1
field mean 1
field stddev nan
field sum 1
field sqrsum 1
field min 1
field max 1
attr interpolationmode  none
attr source  count(arrival)
attr title  "arrival perc, histogram"
bin	-INF	0
bin	0	0
bin	1	1
bin	2	0
statistic RandomGeometricGraph.rgnv[48] 	arrivalTime:histogram
field count 1
field mean 175.013
field stddev nan
field sum 175.013
field sqrsum 30629.550169
field min 175.013
field max 175.013
attr interpolationmode  none
attr source  arrivalTime
attr title  "arrival time, histogram"
bin	-INF	0
bin	174.513	0
bin	174.54633333333	0
bin	174.57966666667	0
bin	174.613	0
bin	174.64633333333	0
bin	174.67966666667	0
bin	174.713	0
bin	174.74633333333	0
bin	174.77966666667	0
bin	174.813	0
bin	174.84633333333	0
bin	174.87966666667	0
bin	174.913	0
bin	174.94633333333	0
bin	174.97966666667	0
bin	175.013	1
bin	175.04633333333	0
bin	175.07966666667	0
bin	175.113	0
bin	175.14633333333	0
bin	175.17966666667	0
bin	175.213	0
bin	175.24633333333	0
bin	175.27966666667	0
bin	175.313	0
bin	175.34633333333	0
bin	175.37966666667	0
bin	175.413	0
bin	175.44633333333	0
bin	175.47966666667	0
bin	175.513	0
statistic RandomGeometricGraph.rgnv[48] 	arrivalPerc:histogram
field count 1
field mean 1
field stddev nan
field sum 1
field sqrsum 1
field min 1
field max 1
attr interpolationmode  none
attr source  count(arrival)
attr title  "arrival perc, histogram"
bin	-INF	0
bin	0	0
bin	1	1
bin	2	0
statistic RandomGeometricGraph.rgnv[49] 	arrivalTime:histogram
field count 1
field mean 193.34
field stddev nan
field sum 193.34
field sqrsum 37380.3556
field min 193.34
field max 193.34
attr interpolationmode  none
attr source  arrivalTime
attr title  "arrival time, histogram"
bin	-INF	0
bin	192.84	0
bin	192.87333333333	0
bin	192.90666666667	0
bin	192.94	0
bin	192.97333333333	0
bin	193.00666666667	0
bin	193.04	0
bin	193.07333333333	0
bin	193.10666666667	0
bin	193.14	0
bin	193.17333333333	0
bin	193.20666666667	0
bin	193.24	0
bin	193.27333333333	0
bin	193.30666666667	0
bin	193.34	1
bin	193.37333333333	0
bin	193.40666666667	0
bin	193.44	0
bin	193.47333333333	0
bin	193.50666666667	0
bin	193.54	0
bin	193.57333333333	0
bin	193.60666666667	0
bin	193.64	0
bin	193.67333333333	0
bin	193.70666666667	0
bin	193.74	0
bin	193.77333333333	0
bin	193.80666666667	0
bin	193.84	0
statistic RandomGeometricGraph.rgnv[49] 	arrivalPerc:histogram
field count 1
field mean 1
field stddev nan
field sum 1
field sqrsum 1
field min 1
field max 1
attr interpolationmode  none
attr source  count(arrival)
attr title  "arrival perc, histogram"
bin	-INF	0
bin	0	0
bin	1	1
bin	2	0
statistic RandomGeometricGraph.rgnv[50] 	arrivalTime:histogram
field count 1
field mean 123.868
field stddev nan
field sum 123.868
field sqrsum 15343.281424
field min 123.868
field max 123.868
attr interpolationmode  none
attr source  arrivalTime
attr title  "arrival time, histogram"
bin	-INF	0
bin	123.368	0
bin	123.40133333333	0
bin	123.43466666667	0
bin	123.468	0
bin	123.50133333333	0
bin	123.53466666667	0
bin	123.568	0
bin	123.60133333333	0
bin	123.63466666667	0
bin	123.668	0
bin	123.70133333333	0
bin	123.73466666667	0
bin	123.768	0
bin	123.80133333333	0
bin	123.83466666667	0
bin	123.868	1
bin	123.90133333333	0
bin	123.93466666667	0
bin	123.968	0
bin	124.00133333333	0
bin	124.03466666667	0
bin	124.068	0
bin	124.10133333333	0
bin	124.13466666667	0
bin	124.168	0
bin	124.20133333333	0
bin	124.23466666667	0
bin	124.268	0
bin	124.30133333333	0
bin	124.33466666667	0
bin	124.368	0
statistic RandomGeometricGraph.rgnv[50] 	arrivalPerc:histogram
field count 1
field mean 1
field stddev nan
field sum 1
field sqrsum 1
field min 1
field max 1
attr interpolationmode  none
attr source  count(arrival)
attr title  "arrival perc, histogram"
bin	-INF	0
bin	0	0
bin	1	1
bin	2	0
statistic RandomGeometricGraph.rgnv[51] 	arrivalTime:histogram
field count 1
field mean 123.878
field stddev nan
field sum 123.878
field sqrsum 15345.758884
field min 123.878
field max 123.878
attr interpolationmode  none
attr source  arrivalTime
attr title  "arrival time, histogram"
bin	-INF	0
bin	123.378	0
bin	123.41133333333	0
bin	123.44466666667	0
bin	123.478	0
bin	123.51133333333	0
bin	123.54466666667	0
bin	123.578	0
bin	123.61133333333	0
bin	123.64466666667	0
bin	123.678	0
bin	123.71133333333	0
bin	123.74466666667	0
bin	123.778	0
bin	123.81133333333	0
bin	123.84466666667	0
bin	123.878	1
bin	123.91133333333	0
bin	123.94466666667	0
bin	123.978	0
bin	124.01133333333	0
bin	124.04466666667	0
bin	124.078	0
bin	124.11133333333	0
bin	124.14466666667	0
bin	124.178	0
bin	124.21133333333	0
bin	124.24466666667	0
bin	124.278	0
bin	124.31133333333	0
bin	124.34466666667	0
bin	124.378	0
statistic RandomGeometricGraph.rgnv[51] 	arrivalPerc:histogram
field count 1
field mean 1
field stddev nan
field sum 1
field sqrsum 1
field min 1
field max 1
attr interpolationmode  none
attr source  count(arrival)
attr title  "arrival perc, histogram"
bin	-INF	0
bin	0	0
bin	1	1
bin	2	0
statistic RandomGeometricGraph.rgnv[52] 	arrivalTime:histogram
field count 1
field mean 187.264
field stddev nan
field sum 187.264
field sqrsum 35067.805696
field min 187.264
field max 187.264
attr interpolationmode  none
attr source  arrivalTime
attr title  "arrival time, histogram"
bin	-INF	0
bin	186.764	0
bin	186.79733333333	0
bin	186.83066666667	0
bin	186.864	0
bin	186.89733333333	0
bin	186.93066666667	0
bin	186.964	0
bin	186.99733333333	0
bin	187.03066666667	0
bin	187.064	0
bin	187.09733333333	0
bin	187.13066666667	0
bin	187.164	0
bin	187.19733333333	0
bin	187.23066666667	0
bin	187.264	1
bin	187.29733333333	0
bin	187.33066666667	0
bin	187.364	0
bin	187.39733333333	0
bin	187.43066666667	0
bin	187.464	0
bin	187.49733333333	0
bin	187.53066666667	0
bin	187.564	0
bin	187.59733333333	0
bin	187.63066666667	0
bin	187.664	0
bin	187.69733333333	0
bin	187.73066666667	0
bin	187.764	0
statistic RandomGeometricGraph.rgnv[52] 	arrivalPerc:histogram
field count 1
field mean 1
field stddev nan
field sum 1
field sqrsum 1
field min 1
field max 1
attr interpolationmode  none
attr source  count(arrival)
attr title  "arrival perc, histogram"
bin	-INF	0
bin	0	0
bin	1	1
bin	2	0
statistic RandomGeometricGraph.rgnv[53] 	arrivalTime:histogram
field count 1
field mean 193.34
field stddev nan
field sum 193.34
field sqrsum 37380.3556
field min 193.34
field max 193.34
attr interpolationmode  none
attr source  arrivalTime
attr title  "arrival time, histogram"
bin	-INF	0
bin	192.84	0
bin	192.87333333333	0
bin	192.90666666667	0
bin	192.94	0
bin	192.97333333333	0
bin	193.00666666667	0
bin	193.04	0
bin	193.07333333333	0
bin	193.10666666667	0
bin	193.14	0
bin	193.17333333333	0
bin	193.20666666667	0
bin	193.24	0
bin	193.27333333333	0
bin	193.30666666667	0
bin	193.34	1
bin	193.37333333333	0
bin	193.40666666667	0
bin	193.44	0
bin	193.47333333333	0
bin	193.50666666667	0
bin	193.54	0
bin	193.57333333333	0
bin	193.60666666667	0
bin	193.64	0
bin	193.67333333333	0
bin	193.70666666667	0
bin	193.74	0
bin	193.77333333333	0
bin	193.80666666667	0
bin	193.84	0
statistic RandomGeometricGraph.rgnv[53] 	arrivalPerc:histogram
field count 1
field mean 1
field stddev nan
field sum 1
field sqrsum 1
field min 1
field max 1
attr interpolationmode  none
attr source  count(arrival)
attr title  "arrival perc, histogram"
bin	-INF	0
bin	0	0
bin	1	1
bin	2	0
statistic RandomGeometricGraph.rgnv[54] 	arrivalTime:histogram
field count 1
field mean 200.561
field stddev nan
field sum 200.561
field sqrsum 40224.714721
field min 200.561
field max 200.561
attr interpolationmode  none
attr source  arrivalTime
attr title  "arrival time, histogram"
bin	-INF	0
bin	200.061	0
bin	200.09433333333	0
bin	200.12766666667	0
bin	200.161	0
bin	200.19433333333	0
bin	200.22766666667	0
bin	200.261	0
bin	200.29433333333	0
bin	200.32766666667	0
bin	200.361	0
bin	200.39433333333	0
bin	200.42766666667	0
bin	200.461	0
bin	200.49433333333	0
bin	200.52766666667	0
bin	200.561	1
bin	200.59433333333	0
bin	200.62766666667	0
bin	200.661	0
bin	200.69433333333	0
bin	200.72766666667	0
bin	200.761	0
bin	200.79433333333	0
bin	200.82766666667	0
bin	200.861	0
bin	200.89433333333	0
bin	200.92766666667	0
bin	200.961	0
bin	200.99433333333	0
bin	201.02766666667	0
bin	201.061	0
statistic RandomGeometricGraph.rgnv[54] 	arrivalPerc:histogram
field count 1
field mean 1
field stddev nan
field sum 1
field sqrsum 1
field min 1
field max 1
attr interpolationmode  none
attr source  count(arrival)
attr title  "arrival perc, histogram"
bin	-INF	0
bin	0	0
bin	1	1
bin	2	0
statistic RandomGeometricGraph.rgnv[55] 	arrivalTime:histogram
field count 1
field mean 152.782
field stddev nan
field sum 152.782
field sqrsum 23342.339524
field min 152.782
field max 152.782
attr interpolationmode  none
attr source  arrivalTime
attr title  "arrival time, histogram"
bin	-INF	0
bin	152.282	0
bin	152.31533333333	0
bin	152.34866666667	0
bin	152.382	0
bin	152.41533333333	0
bin	152.44866666667	0
bin	152.482	0
bin	152.51533333333	0
bin	152.54866666667	0
bin	152.582	0
bin	152.61533333333	0
bin	152.64866666667	0
bin	152.682	0
bin	152.71533333333	0
bin	152.74866666667	0
bin	152.782	1
bin	152.81533333333	0
bin	152.84866666667	0
bin	152.882	0
bin	152.91533333333	0
bin	152.94866666667	0
bin	152.982	0
bin	153.01533333333	0
bin	153.04866666667	0
bin	153.082	0
bin	153.11533333333	0
bin	153.14866666667	0
bin	153.182	0
bin	153.21533333333	0
bin	153.24866666667	0
bin	153.282	0
statistic RandomGeometricGraph.rgnv[55] 	arrivalPerc:histogram
field count 1
field mean 1
field stddev nan
field sum 1
field sqrsum 1
field min 1
field max 1
attr interpolationmode  none
attr source  count(arrival)
attr title  "arrival perc, histogram"
bin	-INF	0
bin	0	0
bin	1	1
bin	2	0
statistic RandomGeometricGraph.rgnv[56] 	arrivalTime:histogram
field count 1
field mean 151.109
field stddev nan
field sum 151.109
field sqrsum 22833.929881
field min 151.109
field max 151.109
attr interpolationmode  none
attr source  arrivalTime
attr title  "arrival time, histogram"
bin	-INF	0
bin	150.609	0
bin	150.64233333333	0
bin	150.67566666667	0
bin	150.709	0
bin	150.74233333333	0
bin	150.77566666667	0
bin	150.809	0
bin	150.84233333333	0
bin	150.87566666667	0
bin	150.909	0
bin	150.94233333333	0
bin	150.97566666667	0
bin	151.009	0
bin	151.04233333333	0
bin	151.07566666667	0
bin	151.109	1
bin	151.14233333333	0
bin	151.17566666667	0
bin	151.209	0
bin	151.24233333333	0
bin	151.27566666667	0
bin	151.309	0
bin	151.34233333333	0
bin	151.37566666667	0
bin	151.409	0
bin	151.44233333333	0
bin	151.47566666667	0
bin	151.509	0
bin	151.54233333333	0
bin	151.57566666667	0
bin	151.609	0
statistic RandomGeometricGraph.rgnv[56] 	arrivalPerc:histogram
field count 1
field mean 1
field stddev nan
field sum 1
field sqrsum 1
field min 1
field max 1
attr interpolationmode  none
attr source  count(arrival)
attr title  "arrival perc, histogram"
bin	-INF	0
bin	0	0
bin	1	1
bin	2	0
statistic RandomGeometricGraph.rgnv[57] 	arrivalTime:histogram
field count 1
field mean 197.244
field stddev nan
field sum 197.244
field sqrsum 38905.195536
field min 197.244
field max 197.244
attr interpolationmode  none
attr source  arrivalTime
attr title  "arrival time, histogram"
bin	-INF	0
bin	196.744	0
bin	196.77733333333	0
bin	196.81066666667	0
bin	196.844	0
bin	196.87733333333	0
bin	196.91066666667	0
bin	196.944	0
bin	196.97733333333	0
bin	197.01066666667	0
bin	197.044	0
bin	197.07733333333	0
bin	197.11066666667	0
bin	197.144	0
bin	197.17733333333	0
bin	197.21066666667	0
bin	197.244	1
bin	197.27733333333	0
bin	197.31066666667	0
bin	197.344	0
bin	197.37733333333	0
bin	197.41066666667	0
bin	197.444	0
bin	197.47733333333	0
bin	197.51066666667	0
bin	197.544	0
bin	197.57733333333	0
bin	197.61066666667	0
bin	197.644	0
bin	197.67733333333	0
bin	197.71066666667	0
bin	197.744	0
statistic RandomGeometricGraph.rgnv[57] 	arrivalPerc:histogram
field count 1
field mean 1
field stddev nan
field sum 1
field sqrsum 1
field min 1
field max 1
attr interpolationmode  none
attr source  count(arrival)
attr title  "arrival perc, histogram"
bin	-INF	0
bin	0	0
bin	1	1
bin	2	0
statistic RandomGeometricGraph.rgnv[58] 	arrivalTime:histogram
field count 1
field mean 138.878
field stddev nan
field sum 138.878
field sqrsum 19287.098884
field min 138.878
field max 138.878
attr interpolationmode  none
attr source  arrivalTime
attr title  "arrival time, histogram"
bin	-INF	0
bin	138.378	0
bin	138.41133333333	0
bin	138.44466666667	0
bin	138.478	0
bin	138.51133333333	0
bin	138.54466666667	0
bin	138.578	0
bin	138.61133333333	0
bin	138.64466666667	0
bin	138.678	0
bin	138.71133333333	0
bin	138.74466666667	0
bin	138.778	0
bin	138.81133333333	0
bin	138.84466666667	0
bin	138.878	1
bin	138.91133333333	0
bin	138.94466666667	0
bin	138.978	0
bin	139.01133333333	0
bin	139.04466666667	0
bin	139.078	0
bin	139.11133333333	0
bin	139.14466666667	0
bin	139.178	0
bin	139.21133333333	0
bin	139.24466666667	0
bin	139.278	0
bin	139.31133333333	0
bin	139.34466666667	0
bin	139.378	0
statistic RandomGeometricGraph.rgnv[58] 	arrivalPerc:histogram
field count 1
field mean 1
field stddev nan
field sum 1
field sqrsum 1
field min 1
field max 1
attr interpolationmode  none
attr source  count(arrival)
attr title  "arrival perc, histogram"
bin	-INF	0
bin	0	0
bin	1	1
bin	2	0
statistic RandomGeometricGraph.rgnv[59] 	arrivalTime:histogram
field count 1
field mean 221.716
field stddev nan
field sum 221.716
field sqrsum 49157.984656
field min 221.716
field max 221.716
attr interpolationmode  none
attr source  arrivalTime
attr title  "arrival time, histogram"
bin	-INF	0
bin	221.216	0
bin	221.24933333333	0
bin	221.28266666667	0
bin	221.316	0
bin	221.34933333333	0
bin	221.38266666667	0
bin	221.416	0
bin	221.44933333333	0
bin	221.48266666667	0
bin	221.516	0
bin	221.54933333333	0
bin	221.58266666667	0
bin	221.616	0
bin	221.64933333333	0
bin	221.68266666667	0
bin	221.716	1
bin	221.74933333333	0
bin	221.78266666667	0
bin	221.816	0
bin	221.84933333333	0
bin	221.88266666667	0
bin	221.916	0
bin	221.94933333333	0
bin	221.98266666667	0
bin	222.016	0
bin	222.04933333333	0
bin	222.08266666667	0
bin	222.116	0
bin	222.14933333333	0
bin	222.18266666667	0
bin	222.216	0
statistic RandomGeometricGraph.rgnv[59] 	arrivalPerc:histogram
field count 1
field mean 1
field stddev nan
field sum 1
field sqrsum 1
field min 1
field max 1
attr interpolationmode  none
attr source  count(arrival)
attr title  "arrival perc, histogram"
bin	-INF	0
bin	0	0
bin	1	1
bin	2	0
statistic RandomGeometricGraph.rgnv[60] 	arrivalTime:histogram
field count 1
field mean 148.33
field stddev nan
field sum 148.33
field sqrsum 22001.7889
field min 148.33
field max 148.33
attr interpolationmode  none
attr source  arrivalTime
attr title  "arrival time, histogram"
bin	-INF	0
bin	147.83	0
bin	147.86333333333	0
bin	147.89666666667	0
bin	147.93	0
bin	147.96333333333	0
bin	147.99666666667	0
bin	148.03	0
bin	148.06333333333	0
bin	148.09666666667	0
bin	148.13	0
bin	148.16333333333	0
bin	148.19666666667	0
bin	148.23	0
bin	148.26333333333	0
bin	148.29666666667	0
bin	148.33	1
bin	148.36333333333	0
bin	148.39666666667	0
bin	148.43	0
bin	148.46333333333	0
bin	148.49666666667	0
bin	148.53	0
bin	148.56333333333	0
bin	148.59666666667	0
bin	148.63	0
bin	148.66333333333	0
bin	148.69666666667	0
bin	148.73	0
bin	148.76333333333	0
bin	148.79666666667	0
bin	148.83	0
statistic RandomGeometricGraph.rgnv[60] 	arrivalPerc:histogram
field count 1
field mean 1
field stddev nan
field sum 1
field sqrsum 1
field min 1
field max 1
attr interpolationmode  none
attr source  count(arrival)
attr title  "arrival perc, histogram"
bin	-INF	0
bin	0	0
bin	1	1
bin	2	0
statistic RandomGeometricGraph.rgnv[61] 	arrivalTime:histogram
field count 1
field mean 199.475
field stddev nan
field sum 199.475
field sqrsum 39790.275625
field min 199.475
field max 199.475
attr interpolationmode  none
attr source  arrivalTime
attr title  "arrival time, histogram"
bin	-INF	0
bin	198.975	0
bin	199.00833333333	0
bin	199.04166666667	0
bin	199.075	0
bin	199.10833333333	0
bin	199.14166666667	0
bin	199.175	0
bin	199.20833333333	0
bin	199.24166666667	0
bin	199.275	0
bin	199.30833333333	0
bin	199.34166666667	0
bin	199.375	0
bin	199.40833333333	0
bin	199.44166666667	0
bin	199.475	1
bin	199.50833333333	0
bin	199.54166666667	0
bin	199.575	0
bin	199.60833333333	0
bin	199.64166666667	0
bin	199.675	0
bin	199.70833333333	0
bin	199.74166666667	0
bin	199.775	0
bin	199.80833333333	0
bin	199.84166666667	0
bin	199.875	0
bin	199.90833333333	0
bin	199.94166666667	0
bin	199.975	0
statistic RandomGeometricGraph.rgnv[61] 	arrivalPerc:histogram
field count 1
field mean 1
field stddev nan
field sum 1
field sqrsum 1
field min 1
field max 1
attr interpolationmode  none
attr source  count(arrival)
attr title  "arrival perc, histogram"
bin	-INF	0
bin	0	0
bin	1	1
bin	2	0
statistic RandomGeometricGraph.rgnv[62] 	arrivalTime:histogram
field count 1
field mean 192.792
field stddev nan
field sum 192.792
field sqrsum 37168.755264
field min 192.792
field max 192.792
attr interpolationmode  none
attr source  arrivalTime
attr title  "arrival time, histogram"
bin	-INF	0
bin	192.292	0
bin	192.32533333333	0
bin	192.35866666667	0
bin	192.392	0
bin	192.42533333333	0
bin	192.45866666667	0
bin	192.492	0
bin	192.52533333333	0
bin	192.55866666667	0
bin	192.592	0
bin	192.62533333333	0
bin	192.65866666667	0
bin	192.692	0
bin	192.72533333333	0
bin	192.75866666667	0
bin	192.792	1
bin	192.82533333333	0
bin	192.85866666667	0
bin	192.892	0
bin	192.92533333333	0
bin	192.95866666667	0
bin	192.992	0
bin	193.02533333333	0
bin	193.05866666667	0
bin	193.092	0
bin	193.12533333333	0
bin	193.15866666667	0
bin	193.192	0
bin	193.22533333333	0
bin	193.25866666667	0
bin	193.292	0
statistic RandomGeometricGraph.rgnv[62] 	arrivalPerc:histogram
field count 1
field mean 1
field stddev nan
field sum 1
field sqrsum 1
field min 1
field max 1
attr interpolationmode  none
attr source  count(arrival)
attr title  "arrival perc, histogram"
bin	-INF	0
bin	0	0
bin	1	1
bin	2	0
statistic RandomGeometricGraph.rgnv[63] 	arrivalTime:histogram
field count 1
field mean 128.878
field stddev nan
field sum 128.878
field sqrsum 16609.538884
field min 128.878
field max 128.878
attr interpolationmode  none
attr source  arrivalTime
attr title  "arrival time, histogram"
bin	-INF	0
bin	128.378	0
bin	128.41133333333	0
bin	128.44466666667	0
bin	128.478	0
bin	128.51133333333	0
bin	128.54466666667	0
bin	128.578	0
bin	128.61133333333	0
bin	128.64466666667	0
bin	128.678	0
bin	128.71133333333	0
bin	128.74466666667	0
bin	128.778	0
bin	128.81133333333	0
bin	128.84466666667	0
bin	128.878	1
bin	128.91133333333	0
bin	128.94466666667	0
bin	128.978	0
bin	129.01133333333	0
bin	129.04466666667	0
bin	129.078	0
bin	129.11133333333	0
bin	129.14466666667	0
bin	129.178	0
bin	129.21133333333	0
bin	129.24466666667	0
bin	129.278	0
bin	129.31133333333	0
bin	129.34466666667	0
bin	129.378	0
statistic RandomGeometricGraph.rgnv[63] 	arrivalPerc:histogram
field count 1
field mean 1
field stddev nan
field sum 1
field sqrsum 1
field min 1
field max 1
attr interpolationmode  none
attr source  count(arrival)
attr title  "arrival perc, histogram"
bin	-INF	0
bin	0	0
bin	1	1
bin	2	0
statistic RandomGeometricGraph.rgnv[64] 	arrivalTime:histogram
field count 1
field mean 123.878
field stddev nan
field sum 123.878
field sqrsum 15345.758884
field min 123.878
field max 123.878
attr interpolationmode  none
attr source  arrivalTime
attr title  "arrival time, histogram"
bin	-INF	0
bin	123.378	0
bin	123.41133333333	0
bin	123.44466666667	0
bin	123.478	0
bin	123.51133333333	0
bin	123.54466666667	0
bin	123.578	0
bin	123.61133333333	0
bin	123.64466666667	0
bin	123.678	0
bin	123.71133333333	0
bin	123.74466666667	0
bin	123.778	0
bin	123.81133333333	0
bin	123.84466666667	0
bin	123.878	1
bin	123.91133333333	0
bin	123.94466666667	0
bin	123.978	0
bin	124.01133333333	0
bin	124.04466666667	0
bin	124.078	0
bin	124.11133333333	0
bin	124.14466666667	0
bin	124.178	0
bin	124.21133333333	0
bin	124.24466666667	0
bin	124.278	0
bin	124.31133333333	0
bin	124.34466666667	0
bin	124.378	0
statistic RandomGeometricGraph.rgnv[64] 	arrivalPerc:histogram
field count 1
field mean 1
field stddev nan
field sum 1
field sqrsum 1
field min 1
field max 1
attr interpolationmode  none
attr source  count(arrival)
attr title  "arrival perc, histogram"
bin	-INF	0
bin	0	0
bin	1	1
bin	2	0
statistic RandomGeometricGraph.rgnv[65] 	arrivalTime:histogram
field count 1
field mean 106.657
field stddev nan
field sum 106.657
field sqrsum 11375.715649
field min 106.657
field max 106.657
attr interpolationmode  none
attr source  arrivalTime
attr title  "arrival time, histogram"
bin	-INF	0
bin	106.157	0
bin	106.19033333333	0
bin	106.22366666667	0
bin	106.257	0
bin	106.29033333333	0
bin	106.32366666667	0
bin	106.357	0
bin	106.39033333333	0
bin	106.42366666667	0
bin	106.457	0
bin	106.49033333333	0
bin	106.52366666667	0
bin	106.557	0
bin	106.59033333333	0
bin	106.62366666667	0
bin	106.657	1
bin	106.69033333333	0
bin	106.72366666667	0
bin	106.757	0
bin	106.79033333333	0
bin	106.82366666667	0
bin	106.857	0
bin	106.89033333333	0
bin	106.92366666667	0
bin	106.957	0
bin	106.99033333333	0
bin	107.02366666667	0
bin	107.057	0
bin	107.09033333333	0
bin	107.12366666667	0
bin	107.157	0
statistic RandomGeometricGraph.rgnv[65] 	arrivalPerc:histogram
field count 1
field mean 1
field stddev nan
field sum 1
field sqrsum 1
field min 1
field max 1
attr interpolationmode  none
attr source  count(arrival)
attr title  "arrival perc, histogram"
bin	-INF	0
bin	0	0
bin	1	1
bin	2	0
statistic RandomGeometricGraph.rgnv[66] 	arrivalTime:histogram
field count 1
field mean 151.109
field stddev nan
field sum 151.109
field sqrsum 22833.929881
field min 151.109
field max 151.109
attr interpolationmode  none
attr source  arrivalTime
attr title  "arrival time, histogram"
bin	-INF	0
bin	150.609	0
bin	150.64233333333	0
bin	150.67566666667	0
bin	150.709	0
bin	150.74233333333	0
bin	150.77566666667	0
bin	150.809	0
bin	150.84233333333	0
bin	150.87566666667	0
bin	150.909	0
bin	150.94233333333	0
bin	150.97566666667	0
bin	151.009	0
bin	151.04233333333	0
bin	151.07566666667	0
bin	151.109	1
bin	151.14233333333	0
bin	151.17566666667	0
bin	151.209	0
bin	151.24233333333	0
bin	151.27566666667	0
bin	151.309	0
bin	151.34233333333	0
bin	151.37566666667	0
bin	151.409	0
bin	151.44233333333	0
bin	151.47566666667	0
bin	151.509	0
bin	151.54233333333	0
bin	151.57566666667	0
bin	151.609	0
[...]
bin	-INF	0
bin	0	0
bin	1	1
bin	2	0
statistic RandomGeometricGraph.rgnv[483] 	arrivalTime:histogram
field count 1
field mean 147.802
field stddev nan
field sum 147.802
field sqrsum 21845.431204
field min 147.802
field max 147.802
attr interpolationmode  none
attr source  arrivalTime
attr title  "arrival time, histogram"
bin	-INF	0
bin	147.302	0
bin	147.33533333333	0
bin	147.36866666667	0
bin	147.402	0
bin	147.43533333333	0
bin	147.46866666667	0
bin	147.502	0
bin	147.53533333333	0
bin	147.56866666667	0
bin	147.602	0
bin	147.63533333333	0
bin	147.66866666667	0
bin	147.702	0
bin	147.73533333333	0
bin	147.76866666667	0
bin	147.802	1
bin	147.83533333333	0
bin	147.86866666667	0
bin	147.902	0
bin	147.93533333333	0
bin	147.96866666667	0
bin	148.002	0
bin	148.03533333333	0
bin	148.06866666667	0
bin	148.102	0
bin	148.13533333333	0
bin	148.16866666667	0
bin	148.202	0
bin	148.23533333333	0
bin	148.26866666667	0
bin	148.302	0
statistic RandomGeometricGraph.rgnv[483] 	arrivalPerc:histogram
field count 1
field mean 1
field stddev nan
field sum 1
field sqrsum 1
field min 1
field max 1
attr interpolationmode  none
attr source  count(arrival)
attr title  "arrival perc, histogram"
bin	-INF	0
bin	0	0
bin	1	1
bin	2	0
statistic RandomGeometricGraph.rgnv[484] 	arrivalTime:histogram
field count 1
field mean 192.792
field stddev nan
field sum 192.792
field sqrsum 37168.755264
field min 192.792
field max 192.792
attr interpolationmode  none
attr source  arrivalTime
attr title  "arrival time, histogram"
bin	-INF	0
bin	192.292	0
bin	192.32533333333	0
bin	192.35866666667	0
bin	192.392	0
bin	192.42533333333	0
bin	192.45866666667	0
bin	192.492	0
bin	192.52533333333	0
bin	192.55866666667	0
bin	192.592	0
bin	192.62533333333	0
bin	192.65866666667	0
bin	192.692	0
bin	192.72533333333	0
bin	192.75866666667	0
bin	192.792	1
bin	192.82533333333	0
bin	192.85866666667	0
bin	192.892	0
bin	192.92533333333	0
bin	192.95866666667	0
bin	192.992	0
bin	193.02533333333	0
bin	193.05866666667	0
bin	193.092	0
bin	193.12533333333	0
bin	193.15866666667	0
bin	193.192	0
bin	193.22533333333	0
bin	193.25866666667	0
bin	193.292	0
statistic RandomGeometricGraph.rgnv[484] 	arrivalPerc:histogram
field count 1
field mean 1
field stddev nan
field sum 1
field sqrsum 1
field min 1
field max 1
attr interpolationmode  none
attr source  count(arrival)
attr title  "arrival perc, histogram"
bin	-INF	0
bin	0	0
bin	1	1
bin	2	0
statistic RandomGeometricGraph.rgnv[485] 	arrivalTime:histogram
field count 1
field mean 96.637
field stddev nan
field sum 96.637
field sqrsum 9338.709769
field min 96.637
field max 96.637
attr interpolationmode  none
attr source  arrivalTime
attr title  "arrival time, histogram"
bin	-INF	0
bin	96.137	0
bin	96.170333333333	0
bin	96.203666666667	0
bin	96.237	0
bin	96.270333333333	0
bin	96.303666666667	0
bin	96.337	0
bin	96.370333333333	0
bin	96.403666666667	0
bin	96.437	0
bin	96.470333333333	0
bin	96.503666666667	0
bin	96.537	0
bin	96.570333333333	0
bin	96.603666666667	0
bin	96.637	1
bin	96.670333333333	0
bin	96.703666666667	0
bin	96.737	0
bin	96.770333333333	0
bin	96.803666666667	0
bin	96.837	0
bin	96.870333333333	0
bin	96.903666666667	0
bin	96.937	0
bin	96.970333333333	0
bin	97.003666666667	0
bin	97.037	0
bin	97.070333333333	0
bin	97.103666666667	0
bin	97.137	0
statistic RandomGeometricGraph.rgnv[485] 	arrivalPerc:histogram
field count 1
field mean 1
field stddev nan
field sum 1
field sqrsum 1
field min 1
field max 1
attr interpolationmode  none
attr source  count(arrival)
attr title  "arrival perc, histogram"
bin	-INF	0
bin	0	0
bin	1	1
bin	2	0
statistic RandomGeometricGraph.rgnv[486] 	arrivalTime:histogram
field count 1
field mean 220.023
field stddev nan
field sum 220.023
field sqrsum 48410.120529
field min 220.023
field max 220.023
attr interpolationmode  none
attr source  arrivalTime
attr title  "arrival time, histogram"
bin	-INF	0
bin	219.523	0
bin	219.55633333333	0
bin	219.58966666667	0
bin	219.623	0
bin	219.65633333333	0
bin	219.68966666667	0
bin	219.723	0
bin	219.75633333333	0
bin	219.78966666667	0
bin	219.823	0
bin	219.85633333333	0
bin	219.88966666667	0
bin	219.923	0
bin	219.95633333333	0
bin	219.98966666667	0
bin	220.023	1
bin	220.05633333333	0
bin	220.08966666667	0
bin	220.123	0
bin	220.15633333333	0
bin	220.18966666667	0
bin	220.223	0
bin	220.25633333333	0
bin	220.28966666667	0
bin	220.323	0
bin	220.35633333333	0
bin	220.38966666667	0
bin	220.423	0
bin	220.45633333333	0
bin	220.48966666667	0
bin	220.523	0
statistic RandomGeometricGraph.rgnv[486] 	arrivalPerc:histogram
field count 1
field mean 1
field stddev nan
field sum 1
field sqrsum 1
field min 1
field max 1
attr interpolationmode  none
attr source  count(arrival)
attr title  "arrival perc, histogram"
bin	-INF	0
bin	0	0
bin	1	1
bin	2	0
statistic RandomGeometricGraph.rgnv[487] 	arrivalTime:histogram
field count 1
field mean 108.868
field stddev nan
field sum 108.868
field sqrsum 11852.241424
field min 108.868
field max 108.868
attr interpolationmode  none
attr source  arrivalTime
attr title  "arrival time, histogram"
bin	-INF	0
bin	108.368	0
bin	108.40133333333	0
bin	108.43466666667	0
bin	108.468	0
bin	108.50133333333	0
bin	108.53466666667	0
bin	108.568	0
bin	108.60133333333	0
bin	108.63466666667	0
bin	108.668	0
bin	108.70133333333	0
bin	108.73466666667	0
bin	108.768	0
bin	108.80133333333	0
bin	108.83466666667	0
bin	108.868	1
bin	108.90133333333	0
bin	108.93466666667	0
bin	108.968	0
bin	109.00133333333	0
bin	109.03466666667	0
bin	109.068	0
bin	109.10133333333	0
bin	109.13466666667	0
bin	109.168	0
bin	109.20133333333	0
bin	109.23466666667	0
bin	109.268	0
bin	109.30133333333	0
bin	109.33466666667	0
bin	109.368	0
statistic RandomGeometricGraph.rgnv[487] 	arrivalPerc:histogram
field count 1
field mean 1
field stddev nan
field sum 1
field sqrsum 1
field min 1
field max 1
attr interpolationmode  none
attr source  count(arrival)
attr title  "arrival perc, histogram"
bin	-INF	0
bin	0	0
bin	1	1
bin	2	0
statistic RandomGeometricGraph.rgnv[488] 	arrivalTime:histogram
field count 1
field mean 121.099
field stddev nan
field sum 121.099
field sqrsum 14664.967801
field min 121.099
field max 121.099
attr interpolationmode  none
attr source  arrivalTime
attr title  "arrival time, histogram"
bin	-INF	0
bin	120.599	0
bin	120.63233333333	0
bin	120.66566666667	0
bin	120.699	0
bin	120.73233333333	0
bin	120.76566666667	0
bin	120.799	0
bin	120.83233333333	0
bin	120.86566666667	0
bin	120.899	0
bin	120.93233333333	0
bin	120.96566666667	0
bin	120.999	0
bin	121.03233333333	0
bin	121.06566666667	0
bin	121.099	1
bin	121.13233333333	0
bin	121.16566666667	0
bin	121.199	0
bin	121.23233333333	0
bin	121.26566666667	0
bin	121.299	0
bin	121.33233333333	0
bin	121.36566666667	0
bin	121.399	0
bin	121.43233333333	0
bin	121.46566666667	0
bin	121.499	0
bin	121.53233333333	0
bin	121.56566666667	0
bin	121.599	0
statistic RandomGeometricGraph.rgnv[488] 	arrivalPerc:histogram
field count 1
field mean 1
field stddev nan
field sum 1
field sqrsum 1
field min 1
field max 1
attr interpolationmode  none
attr source  count(arrival)
attr title  "arrival perc, histogram"
bin	-INF	0
bin	0	0
bin	1	1
bin	2	0
statistic RandomGeometricGraph.rgnv[489] 	arrivalTime:histogram
field count 1
field mean 62.165
field stddev nan
field sum 62.165
field sqrsum 3864.487225
field min 62.165
field max 62.165
attr interpolationmode  none
attr source  arrivalTime
attr title  "arrival time, histogram"
bin	-INF	0
bin	61.665	0
bin	61.698333333333	0
bin	61.731666666667	0
bin	61.765	0
bin	61.798333333333	0
bin	61.831666666667	0
bin	61.865	0
bin	61.898333333333	0
bin	61.931666666667	0
bin	61.965	0
bin	61.998333333333	0
bin	62.031666666667	0
bin	62.065	0
bin	62.098333333333	0
bin	62.131666666667	0
bin	62.165	1
bin	62.198333333333	0
bin	62.231666666667	0
bin	62.265	0
bin	62.298333333333	0
bin	62.331666666667	0
bin	62.365	0
bin	62.398333333333	0
bin	62.431666666667	0
bin	62.465	0
bin	62.498333333333	0
bin	62.531666666667	0
bin	62.565	0
bin	62.598333333333	0
bin	62.631666666667	0
bin	62.665	0
statistic RandomGeometricGraph.rgnv[489] 	arrivalPerc:histogram
field count 1
field mean 1
field stddev nan
field sum 1
field sqrsum 1
field min 1
field max 1
attr interpolationmode  none
attr source  count(arrival)
attr title  "arrival perc, histogram"
bin	-INF	0
bin	0	0
bin	1	1
bin	2	0
statistic RandomGeometricGraph.rgnv[490] 	arrivalTime:histogram
field count 1
field mean 143.33
field stddev nan
field sum 143.33
field sqrsum 20543.4889
field min 143.33
field max 143.33
attr interpolationmode  none
attr source  arrivalTime
attr title  "arrival time, histogram"
bin	-INF	0
bin	142.83	0
bin	142.86333333333	0
bin	142.89666666667	0
bin	142.93	0
bin	142.96333333333	0
bin	142.99666666667	0
bin	143.03	0
bin	143.06333333333	0
bin	143.09666666667	0
bin	143.13	0
bin	143.16333333333	0
bin	143.19666666667	0
bin	143.23	0
bin	143.26333333333	0
bin	143.29666666667	0
bin	143.33	1
bin	143.36333333333	0
bin	143.39666666667	0
bin	143.43	0
bin	143.46333333333	0
bin	143.49666666667	0
bin	143.53	0
bin	143.56333333333	0
bin	143.59666666667	0
bin	143.63	0
bin	143.66333333333	0
bin	143.69666666667	0
bin	143.73	0
bin	143.76333333333	0
bin	143.79666666667	0
bin	143.83	0
statistic RandomGeometricGraph.rgnv[490] 	arrivalPerc:histogram
field count 1
field mean 1
field stddev nan
field sum 1
field sqrsum 1
field min 1
field max 1
attr interpolationmode  none
attr source  count(arrival)
attr title  "arrival perc, histogram"
bin	-INF	0
bin	0	0
bin	1	1
bin	2	0
statistic RandomGeometricGraph.rgnv[491] 	arrivalTime:histogram
field count 1
field mean 116.099
field stddev nan
field sum 116.099
field sqrsum 13478.977801
field min 116.099
field max 116.099
attr interpolationmode  none
attr source  arrivalTime
attr title  "arrival time, histogram"
bin	-INF	0
bin	115.599	0
bin	115.63233333333	0
bin	115.66566666667	0
bin	115.699	0
bin	115.73233333333	0
bin	115.76566666667	0
bin	115.799	0
bin	115.83233333333	0
bin	115.86566666667	0
bin	115.899	0
bin	115.93233333333	0
bin	115.96566666667	0
bin	115.999	0
bin	116.03233333333	0
bin	116.06566666667	0
bin	116.099	1
bin	116.13233333333	0
bin	116.16566666667	0
bin	116.199	0
bin	116.23233333333	0
bin	116.26566666667	0
bin	116.299	0
bin	116.33233333333	0
bin	116.36566666667	0
bin	116.399	0
bin	116.43233333333	0
bin	116.46566666667	0
bin	116.499	0
bin	116.53233333333	0
bin	116.56566666667	0
bin	116.599	0
statistic RandomGeometricGraph.rgnv[491] 	arrivalPerc:histogram
field count 1
field mean 1
field stddev nan
field sum 1
field sqrsum 1
field min 1
field max 1
attr interpolationmode  none
attr source  count(arrival)
attr title  "arrival perc, histogram"
bin	-INF	0
bin	0	0
bin	1	1
bin	2	0
statistic RandomGeometricGraph.rgnv[492] 	arrivalTime:histogram
field count 1
field mean 103.848
field stddev nan
field sum 103.848
field sqrsum 10784.407104
field min 103.848
field max 103.848
attr interpolationmode  none
attr source  arrivalTime
attr title  "arrival time, histogram"
bin	-INF	0
bin	103.348	0
bin	103.38133333333	0
bin	103.41466666667	0
bin	103.448	0
bin	103.48133333333	0
bin	103.51466666667	0
bin	103.548	0
bin	103.58133333333	0
bin	103.61466666667	0
bin	103.648	0
bin	103.68133333333	0
bin	103.71466666667	0
bin	103.748	0
bin	103.78133333333	0
bin	103.81466666667	0
bin	103.848	1
bin	103.88133333333	0
bin	103.91466666667	0
bin	103.948	0
bin	103.98133333333	0
bin	104.01466666667	0
bin	104.048	0
bin	104.08133333333	0
bin	104.11466666667	0
bin	104.148	0
bin	104.18133333333	0
bin	104.21466666667	0
bin	104.248	0
bin	104.28133333333	0
bin	104.31466666667	0
bin	104.348	0
statistic RandomGeometricGraph.rgnv[492] 	arrivalPerc:histogram
field count 1
field mean 1
field stddev nan
field sum 1
field sqrsum 1
field min 1
field max 1
attr interpolationmode  none
attr source  count(arrival)
attr title  "arrival perc, histogram"
bin	-INF	0
bin	0	0
bin	1	1
bin	2	0
statistic RandomGeometricGraph.rgnv[493] 	arrivalTime:histogram
field count 1
field mean 178.34
field stddev nan
field sum 178.34
field sqrsum 31805.1556
field min 178.34
field max 178.34
attr interpolationmode  none
attr source  arrivalTime
attr title  "arrival time, histogram"
bin	-INF	0
bin	177.84	0
bin	177.87333333333	0
bin	177.90666666667	0
bin	177.94	0
bin	177.97333333333	0
bin	178.00666666667	0
bin	178.04	0
bin	178.07333333333	0
bin	178.10666666667	0
bin	178.14	0
bin	178.17333333333	0
bin	178.20666666667	0
bin	178.24	0
bin	178.27333333333	0
bin	178.30666666667	0
bin	178.34	1
bin	178.37333333333	0
bin	178.40666666667	0
bin	178.44	0
bin	178.47333333333	0
bin	178.50666666667	0
bin	178.54	0
bin	178.57333333333	0
bin	178.60666666667	0
bin	178.64	0
bin	178.67333333333	0
bin	178.70666666667	0
bin	178.74	0
bin	178.77333333333	0
bin	178.80666666667	0
bin	178.84	0
statistic RandomGeometricGraph.rgnv[493] 	arrivalPerc:histogram
field count 1
field mean 1
field stddev nan
field sum 1
field sqrsum 1
field min 1
field max 1
attr interpolationmode  none
attr source  count(arrival)
attr title  "arrival perc, histogram"
bin	-INF	0
bin	0	0
bin	1	1
bin	2	0
statistic RandomGeometricGraph.rgnv[494] 	arrivalTime:histogram
field count 1
field mean 111.657
field stddev nan
field sum 111.657
field sqrsum 12467.285649
field min 111.657
field max 111.657
attr interpolationmode  none
attr source  arrivalTime
attr title  "arrival time, histogram"
bin	-INF	0
bin	111.157	0
bin	111.19033333333	0
bin	111.22366666667	0
bin	111.257	0
bin	111.29033333333	0
bin	111.32366666667	0
bin	111.357	0
bin	111.39033333333	0
bin	111.42366666667	0
bin	111.457	0
bin	111.49033333333	0
bin	111.52366666667	0
bin	111.557	0
bin	111.59033333333	0
bin	111.62366666667	0
bin	111.657	1
bin	111.69033333333	0
bin	111.72366666667	0
bin	111.757	0
bin	111.79033333333	0
bin	111.82366666667	0
bin	111.857	0
bin	111.89033333333	0
bin	111.92366666667	0
bin	111.957	0
bin	111.99033333333	0
bin	112.02366666667	0
bin	112.057	0
bin	112.09033333333	0
bin	112.12366666667	0
bin	112.157	0
statistic RandomGeometricGraph.rgnv[494] 	arrivalPerc:histogram
field count 1
field mean 1
field stddev nan
field sum 1
field sqrsum 1
field min 1
field max 1
attr interpolationmode  none
attr source  count(arrival)
attr title  "arrival perc, histogram"
bin	-INF	0
bin	0	0
bin	1	1
bin	2	0
statistic RandomGeometricGraph.rgnv[495] 	arrivalTime:histogram
field count 1
field mean 74.406
field stddev nan
field sum 74.406
field sqrsum 5536.252836
field min 74.406
field max 74.406
attr interpolationmode  none
attr source  arrivalTime
attr title  "arrival time, histogram"
bin	-INF	0
bin	73.906	0
bin	73.939333333333	0
bin	73.972666666667	0
bin	74.006	0
bin	74.039333333333	0
bin	74.072666666667	0
bin	74.106	0
bin	74.139333333333	0
bin	74.172666666667	0
bin	74.206	0
bin	74.239333333333	0
bin	74.272666666667	0
bin	74.306	0
bin	74.339333333333	0
bin	74.372666666667	0
bin	74.406	1
bin	74.439333333333	0
bin	74.472666666667	0
bin	74.506	0
bin	74.539333333333	0
bin	74.572666666667	0
bin	74.606	0
bin	74.639333333333	0
bin	74.672666666667	0
bin	74.706	0
bin	74.739333333333	0
bin	74.772666666667	0
bin	74.806	0
bin	74.839333333333	0
bin	74.872666666667	0
bin	74.906	0
statistic RandomGeometricGraph.rgnv[495] 	arrivalPerc:histogram
field count 1
field mean 1
field stddev nan
field sum 1
field sqrsum 1
field min 1
field max 1
attr interpolationmode  none
attr source  count(arrival)
attr title  "arrival perc, histogram"
bin	-INF	0
bin	0	0
bin	1	1
bin	2	0
statistic RandomGeometricGraph.rgnv[496] 	arrivalTime:histogram
field count 1
field mean 215.023
field stddev nan
field sum 215.023
field sqrsum 46234.890529
field min 215.023
field max 215.023
attr interpolationmode  none
attr source  arrivalTime
attr title  "arrival time, histogram"
bin	-INF	0
bin	214.523	0
bin	214.55633333333	0
bin	214.58966666667	0
bin	214.623	0
bin	214.65633333333	0
bin	214.68966666667	0
bin	214.723	0
bin	214.75633333333	0
bin	214.78966666667	0
bin	214.823	0
bin	214.85633333333	0
bin	214.88966666667	0
bin	214.923	0
bin	214.95633333333	0
bin	214.98966666667	0
bin	215.023	1
bin	215.05633333333	0
bin	215.08966666667	0
bin	215.123	0
bin	215.15633333333	0
bin	215.18966666667	0
bin	215.223	0
bin	215.25633333333	0
bin	215.28966666667	0
bin	215.323	0
bin	215.35633333333	0
bin	215.38966666667	0
bin	215.423	0
bin	215.45633333333	0
bin	215.48966666667	0
bin	215.523	0
statistic RandomGeometricGraph.rgnv[496] 	arrivalPerc:histogram
field count 1
field mean 1
field stddev nan
field sum 1
field sqrsum 1
field min 1
field max 1
attr interpolationmode  none
attr source  count(arrival)
attr title  "arrival perc, histogram"
bin	-INF	0
bin	0	0
bin	1	1
bin	2	0
statistic RandomGeometricGraph.rgnv[497] 	arrivalTime:histogram
field count 1
field mean 138.32
field stddev nan
field sum 138.32
field sqrsum 19132.4224
field min 138.32
field max 138.32
attr interpolationmode  none
attr source  arrivalTime
attr title  "arrival time, histogram"
bin	-INF	0
bin	137.82	0
bin	137.85333333333	0
bin	137.88666666667	0
bin	137.92	0
bin	137.95333333333	0
bin	137.98666666667	0
bin	138.02	0
bin	138.05333333333	0
bin	138.08666666667	0
bin	138.12	0
bin	138.15333333333	0
bin	138.18666666667	0
bin	138.22	0
bin	138.25333333333	0
bin	138.28666666667	0
bin	138.32	1
bin	138.35333333333	0
bin	138.38666666667	0
bin	138.42	0
bin	138.45333333333	0
bin	138.48666666667	0
bin	138.52	0
bin	138.55333333333	0
bin	138.58666666667	0
bin	138.62	0
bin	138.65333333333	0
bin	138.68666666667	0
bin	138.72	0
bin	138.75333333333	0
bin	138.78666666667	0
bin	138.82	0
statistic RandomGeometricGraph.rgnv[497] 	arrivalPerc:histogram
field count 1
field mean 1
field stddev nan
field sum 1
field sqrsum 1
field min 1
field max 1
attr interpolationmode  none
attr source  count(arrival)
attr title  "arrival perc, histogram"
bin	-INF	0
bin	0	0
bin	1	1
bin	2	0
statistic RandomGeometricGraph.rgnv[498] 	arrivalTime:histogram
field count 1
field mean 228.937
field stddev nan
field sum 228.937
field sqrsum 52412.149969
field min 228.937
field max 228.937
attr interpolationmode  none
attr source  arrivalTime
attr title  "arrival time, histogram"
bin	-INF	0
bin	228.437	0
bin	228.47033333333	0
bin	228.50366666667	0
bin	228.537	0
bin	228.57033333333	0
bin	228.60366666667	0
bin	228.637	0
bin	228.67033333333	0
bin	228.70366666667	0
bin	228.737	0
bin	228.77033333333	0
bin	228.80366666667	0
bin	228.837	0
bin	228.87033333333	0
bin	228.90366666667	0
bin	228.937	1
bin	228.97033333333	0
bin	229.00366666667	0
bin	229.037	0
bin	229.07033333333	0
bin	229.10366666667	0
bin	229.137	0
bin	229.17033333333	0
bin	229.20366666667	0
bin	229.237	0
bin	229.27033333333	0
bin	229.30366666667	0
bin	229.337	0
bin	229.37033333333	0
bin	229.40366666667	0
bin	229.437	0
statistic RandomGeometricGraph.rgnv[498] 	arrivalPerc:histogram
field count 1
field mean 1
field stddev nan
field sum 1
field sqrsum 1
field min 1
field max 1
attr interpolationmode  none
attr source  count(arrival)
attr title  "arrival perc, histogram"
bin	-INF	0
bin	0	0
bin	1	1
bin	2	0
statistic RandomGeometricGraph.rgnv[499] 	arrivalTime:histogram
field count 1
field mean 216.716
field stddev nan
field sum 216.716
field sqrsum 46965.824656
field min 216.716
field max 216.716
attr interpolationmode  none
attr source  arrivalTime
attr title  "arrival time, histogram"
bin	-INF	0
bin	216.216	0
bin	216.24933333333	0
bin	216.28266666667	0
bin	216.316	0
bin	216.34933333333	0
bin	216.38266666667	0
bin	216.416	0
bin	216.44933333333	0
bin	216.48266666667	0
bin	216.516	0
bin	216.54933333333	0
bin	216.58266666667	0
bin	216.616	0
bin	216.64933333333	0
bin	216.68266666667	0
bin	216.716	1
bin	216.74933333333	0
bin	216.78266666667	0
bin	216.816	0
bin	216.84933333333	0
bin	216.88266666667	0
bin	216.916	0
bin	216.94933333333	0
bin	216.98266666667	0
bin	217.016	0
bin	217.04933333333	0
bin	217.08266666667	0
bin	217.116	0
bin	217.14933333333	0
bin	217.18266666667	0
bin	217.216	0
statistic RandomGeometricGraph.rgnv[499] 	arrivalPerc:histogram
field count 1
field mean 1
field stddev nan
field sum 1
field sqrsum 1
field min 1
field max 1
attr interpolationmode  none
attr source  count(arrival)
attr title  "arrival perc, histogram"
bin	-INF	0
bin	0	0
bin	1	1
bin	2	0
