version 2
run rgg50-8-20170110-16:27:04-9312
attr configname rgg50
attr datetime 20170110-16:27:04
attr experiment rgg50
attr inifile iniFile/D001/omnetpp_50D001.ini
attr iterationvars ""
attr iterationvars2 $repetition=8
attr measurement ""
attr network blegossipprj.net.randomgeometricgraph.RandomGeometricGraph
attr processid 9312
attr repetition 8
attr replication #8
attr resultdir ../../results/D001/r50D001
attr runnumber 8
attr seedset 8
param RandomGeometricGraph.netSize 50
param RandomGeometricGraph.radius 50
param RandomGeometricGraph.rgnv[*].areaLength 50
param RandomGeometricGraph.rgnv[*].areaWidth 50

statistic RandomGeometricGraph.sc 	arrivalPercentage
field count 49
field mean 1
field stddev 0
field sum 49
field sqrsum 49
field min 1
field max 1
bin	-INF	0
bin	0	0
bin	1	49
bin	2	0
statistic RandomGeometricGraph.sc 	arrivalTime
field count 49
field mean 117.17424489796
field stddev 65.907019634523
field sum 5741.538
field sqrsum 881259.671084
field min 0
field max 236.089
bin	-INF	0
bin	-118.0445	0
bin	-102.30523333333	0
bin	-86.565966666667	0
bin	-70.8267	0
bin	-55.087433333333	0
bin	-39.348166666667	0
bin	-23.6089	0
bin	-7.8696333333333	1
bin	7.8696333333333	1
bin	23.6089	4
bin	39.348166666667	4
bin	55.087433333333	6
bin	70.8267	2
bin	86.565966666667	6
bin	102.30523333333	2
bin	118.0445	3
bin	133.78376666667	3
bin	149.52303333333	3
bin	165.2623	3
bin	181.00156666667	3
bin	196.74083333333	3
bin	212.4801	3
bin	228.21936666667	2
bin	243.95863333333	0
bin	259.6979	0
bin	275.43716666667	0
bin	291.17643333333	0
bin	306.9157	0
bin	322.65496666667	0
bin	338.39423333333	0
bin	354.1335	0
statistic RandomGeometricGraph.rgnv[0] 	arrivalTime:histogram
field count 1
field mean 54.934
field stddev nan
field sum 54.934
field sqrsum 3017.744356
field min 54.934
field max 54.934
attr interpolationmode  none
attr source  arrivalTime
attr title  "arrival time, histogram"
bin	-INF	0
bin	54.434	0
bin	54.467333333333	0
bin	54.500666666667	0
bin	54.534	0
bin	54.567333333333	0
bin	54.600666666667	0
bin	54.634	0
bin	54.667333333333	0
bin	54.700666666667	0
bin	54.734	0
bin	54.767333333333	0
bin	54.800666666667	0
bin	54.834	0
bin	54.867333333333	0
bin	54.900666666667	0
bin	54.934	1
bin	54.967333333333	0
bin	55.000666666667	0
bin	55.034	0
bin	55.067333333333	0
bin	55.100666666667	0
bin	55.134	0
bin	55.167333333333	0
bin	55.200666666667	0
bin	55.234	0
bin	55.267333333333	0
bin	55.300666666667	0
bin	55.334	0
bin	55.367333333333	0
bin	55.400666666667	0
bin	55.434	0
statistic RandomGeometricGraph.rgnv[0] 	arrivalPerc:histogram
field count 1
field mean 1
field stddev nan
field sum 1
field sqrsum 1
field min 1
field max 1
attr interpolationmode  none
attr source  count(arrival)
attr title  "arrival perc, histogram"
bin	-INF	0
bin	0	0
bin	1	1
bin	2	0
statistic RandomGeometricGraph.rgnv[1] 	arrivalTime:histogram
field count 1
field mean 82.165
field stddev nan
field sum 82.165
field sqrsum 6751.087225
field min 82.165
field max 82.165
attr interpolationmode  none
attr source  arrivalTime
attr title  "arrival time, histogram"
bin	-INF	0
bin	81.665	0
bin	81.698333333333	0
bin	81.731666666667	0
bin	81.765	0
bin	81.798333333333	0
bin	81.831666666667	0
bin	81.865	0
bin	81.898333333333	0
bin	81.931666666667	0
bin	81.965	0
bin	81.998333333333	0
bin	82.031666666667	0
bin	82.065	0
bin	82.098333333333	0
bin	82.131666666667	0
bin	82.165	1
bin	82.198333333333	0
bin	82.231666666667	0
bin	82.265	0
bin	82.298333333333	0
bin	82.331666666667	0
bin	82.365	0
bin	82.398333333333	0
bin	82.431666666667	0
bin	82.465	0
bin	82.498333333333	0
bin	82.531666666667	0
bin	82.565	0
bin	82.598333333333	0
bin	82.631666666667	0
bin	82.665	0
statistic RandomGeometricGraph.rgnv[1] 	arrivalPerc:histogram
field count 1
field mean 1
field stddev nan
field sum 1
field sqrsum 1
field min 1
field max 1
attr interpolationmode  none
attr source  count(arrival)
attr title  "arrival perc, histogram"
bin	-INF	0
bin	0	0
bin	1	1
bin	2	0
statistic RandomGeometricGraph.rgnv[2] 	arrivalTime:histogram
field count 1
field mean 59.934
field stddev nan
field sum 59.934
field sqrsum 3592.084356
field min 59.934
field max 59.934
attr interpolationmode  none
attr source  arrivalTime
attr title  "arrival time, histogram"
bin	-INF	0
bin	59.434	0
bin	59.467333333333	0
bin	59.500666666667	0
bin	59.534	0
bin	59.567333333333	0
bin	59.600666666667	0
bin	59.634	0
bin	59.667333333333	0
bin	59.700666666667	0
bin	59.734	0
bin	59.767333333333	0
bin	59.800666666667	0
bin	59.834	0
bin	59.867333333333	0
bin	59.900666666667	0
bin	59.934	1
bin	59.967333333333	0
bin	60.000666666667	0
bin	60.034	0
bin	60.067333333333	0
bin	60.100666666667	0
bin	60.134	0
bin	60.167333333333	0
bin	60.200666666667	0
bin	60.234	0
bin	60.267333333333	0
bin	60.300666666667	0
bin	60.334	0
bin	60.367333333333	0
bin	60.400666666667	0
bin	60.434	0
statistic RandomGeometricGraph.rgnv[2] 	arrivalPerc:histogram
field count 1
field mean 1
field stddev nan
field sum 1
field sqrsum 1
field min 1
field max 1
attr interpolationmode  none
attr source  count(arrival)
attr title  "arrival perc, histogram"
bin	-INF	0
bin	0	0
bin	1	1
bin	2	0
statistic RandomGeometricGraph.rgnv[3] 	arrivalTime:histogram
field count 1
field mean 0
field stddev nan
field sum 0
field sqrsum 0
field min 0
field max 0
attr interpolationmode  none
attr source  arrivalTime
attr title  "arrival time, histogram"
bin	-INF	0
bin	-0.5	0
bin	-0.46666666666667	0
bin	-0.43333333333333	0
bin	-0.4	0
bin	-0.36666666666667	0
bin	-0.33333333333333	0
bin	-0.3	0
bin	-0.26666666666667	0
bin	-0.23333333333333	0
bin	-0.2	0
bin	-0.16666666666667	0
bin	-0.13333333333333	0
bin	-0.1	0
bin	-0.066666666666667	0
bin	-0.033333333333333	0
bin	0	1
bin	0.033333333333333	0
bin	0.066666666666667	0
bin	0.1	0
bin	0.13333333333333	0
bin	0.16666666666667	0
bin	0.2	0
bin	0.23333333333333	0
bin	0.26666666666667	0
bin	0.3	0
bin	0.33333333333333	0
bin	0.36666666666667	0
bin	0.4	0
bin	0.43333333333333	0
bin	0.46666666666667	0
bin	0.5	0
statistic RandomGeometricGraph.rgnv[3] 	arrivalPerc:histogram
field count 1
field mean 1
field stddev nan
field sum 1
field sqrsum 1
field min 1
field max 1
attr interpolationmode  none
attr source  count(arrival)
attr title  "arrival perc, histogram"
bin	-INF	0
bin	0	0
bin	1	1
bin	2	0
statistic RandomGeometricGraph.rgnv[4] 	arrivalTime:histogram
field count 1
field mean 42.703
field stddev nan
field sum 42.703
field sqrsum 1823.546209
field min 42.703
field max 42.703
attr interpolationmode  none
attr source  arrivalTime
attr title  "arrival time, histogram"
bin	-INF	0
bin	42.203	0
bin	42.236333333333	0
bin	42.269666666667	0
bin	42.303	0
bin	42.336333333333	0
bin	42.369666666667	0
bin	42.403	0
bin	42.436333333333	0
bin	42.469666666667	0
bin	42.503	0
bin	42.536333333333	0
bin	42.569666666667	0
bin	42.603	0
bin	42.636333333333	0
bin	42.669666666667	0
bin	42.703	1
bin	42.736333333333	0
bin	42.769666666667	0
bin	42.803	0
bin	42.836333333333	0
bin	42.869666666667	0
bin	42.903	0
bin	42.936333333333	0
bin	42.969666666667	0
bin	43.003	0
bin	43.036333333333	0
bin	43.069666666667	0
bin	43.103	0
bin	43.136333333333	0
bin	43.169666666667	0
bin	43.203	0
statistic RandomGeometricGraph.rgnv[4] 	arrivalPerc:histogram
field count 1
field mean 1
field stddev nan
field sum 1
field sqrsum 1
field min 1
field max 1
attr interpolationmode  none
attr source  count(arrival)
attr title  "arrival perc, histogram"
bin	-INF	0
bin	0	0
bin	1	1
bin	2	0
statistic RandomGeometricGraph.rgnv[5] 	arrivalTime:histogram
field count 1
field mean 161.627
field stddev nan
field sum 161.627
field sqrsum 26123.287129
field min 161.627
field max 161.627
attr interpolationmode  none
attr source  arrivalTime
attr title  "arrival time, histogram"
bin	-INF	0
bin	161.127	0
bin	161.16033333333	0
bin	161.19366666667	0
bin	161.227	0
bin	161.26033333333	0
bin	161.29366666667	0
bin	161.327	0
bin	161.36033333333	0
bin	161.39366666667	0
bin	161.427	0
bin	161.46033333333	0
bin	161.49366666667	0
bin	161.527	0
bin	161.56033333333	0
bin	161.59366666667	0
bin	161.627	1
bin	161.66033333333	0
bin	161.69366666667	0
bin	161.727	0
bin	161.76033333333	0
bin	161.79366666667	0
bin	161.827	0
bin	161.86033333333	0
bin	161.89366666667	0
bin	161.927	0
bin	161.96033333333	0
bin	161.99366666667	0
bin	162.027	0
bin	162.06033333333	0
bin	162.09366666667	0
bin	162.127	0
statistic RandomGeometricGraph.rgnv[5] 	arrivalPerc:histogram
field count 1
field mean 1
field stddev nan
field sum 1
field sqrsum 1
field min 1
field max 1
attr interpolationmode  none
attr source  count(arrival)
attr title  "arrival perc, histogram"
bin	-INF	0
bin	0	0
bin	1	1
bin	2	0
statistic RandomGeometricGraph.rgnv[6] 	arrivalTime:histogram
field count 1
field mean 231.089
field stddev nan
field sum 231.089
field sqrsum 53402.125921
field min 231.089
field max 231.089
attr interpolationmode  none
attr source  arrivalTime
attr title  "arrival time, histogram"
bin	-INF	0
bin	230.589	0
bin	230.62233333333	0
bin	230.65566666667	0
bin	230.689	0
bin	230.72233333333	0
bin	230.75566666667	0
bin	230.789	0
bin	230.82233333333	0
bin	230.85566666667	0
bin	230.889	0
bin	230.92233333333	0
bin	230.95566666667	0
bin	230.989	0
bin	231.02233333333	0
bin	231.05566666667	0
bin	231.089	1
bin	231.12233333333	0
bin	231.15566666667	0
bin	231.189	0
bin	231.22233333333	0
bin	231.25566666667	0
bin	231.289	0
bin	231.32233333333	0
bin	231.35566666667	0
bin	231.389	0
bin	231.42233333333	0
bin	231.45566666667	0
bin	231.489	0
bin	231.52233333333	0
bin	231.55566666667	0
bin	231.589	0
statistic RandomGeometricGraph.rgnv[6] 	arrivalPerc:histogram
field count 1
field mean 1
field stddev nan
field sum 1
field sqrsum 1
field min 1
field max 1
attr interpolationmode  none
attr source  count(arrival)
attr title  "arrival perc, histogram"
bin	-INF	0
bin	0	0
bin	1	1
bin	2	0
statistic RandomGeometricGraph.rgnv[7] 	arrivalTime:histogram
field count 1
field mean 218.878
field stddev nan
field sum 218.878
field sqrsum 47907.578884
field min 218.878
field max 218.878
attr interpolationmode  none
attr source  arrivalTime
attr title  "arrival time, histogram"
bin	-INF	0
bin	218.378	0
bin	218.41133333333	0
bin	218.44466666667	0
bin	218.478	0
bin	218.51133333333	0
bin	218.54466666667	0
bin	218.578	0
bin	218.61133333333	0
bin	218.64466666667	0
bin	218.678	0
bin	218.71133333333	0
bin	218.74466666667	0
bin	218.778	0
bin	218.81133333333	0
bin	218.84466666667	0
bin	218.878	1
bin	218.91133333333	0
bin	218.94466666667	0
bin	218.978	0
bin	219.01133333333	0
bin	219.04466666667	0
bin	219.078	0
bin	219.11133333333	0
bin	219.14466666667	0
bin	219.178	0
bin	219.21133333333	0
bin	219.24466666667	0
bin	219.278	0
bin	219.31133333333	0
bin	219.34466666667	0
bin	219.378	0
statistic RandomGeometricGraph.rgnv[7] 	arrivalPerc:histogram
field count 1
field mean 1
field stddev nan
field sum 1
field sqrsum 1
field min 1
field max 1
attr interpolationmode  none
attr source  count(arrival)
attr title  "arrival perc, histogram"
bin	-INF	0
bin	0	0
bin	1	1
bin	2	0
statistic RandomGeometricGraph.rgnv[8] 	arrivalTime:histogram
field count 1
field mean 176.637
field stddev nan
field sum 176.637
field sqrsum 31200.629769
field min 176.637
field max 176.637
attr interpolationmode  none
attr source  arrivalTime
attr title  "arrival time, histogram"
bin	-INF	0
bin	176.137	0
bin	176.17033333333	0
bin	176.20366666667	0
bin	176.237	0
bin	176.27033333333	0
bin	176.30366666667	0
bin	176.337	0
bin	176.37033333333	0
bin	176.40366666667	0
bin	176.437	0
bin	176.47033333333	0
bin	176.50366666667	0
bin	176.537	0
bin	176.57033333333	0
bin	176.60366666667	0
bin	176.637	1
bin	176.67033333333	0
bin	176.70366666667	0
bin	176.737	0
bin	176.77033333333	0
bin	176.80366666667	0
bin	176.837	0
bin	176.87033333333	0
bin	176.90366666667	0
bin	176.937	0
bin	176.97033333333	0
bin	177.00366666667	0
bin	177.037	0
bin	177.07033333333	0
bin	177.10366666667	0
bin	177.137	0
statistic RandomGeometricGraph.rgnv[8] 	arrivalPerc:histogram
field count 1
field mean 1
field stddev nan
field sum 1
field sqrsum 1
field min 1
field max 1
attr interpolationmode  none
attr source  count(arrival)
attr title  "arrival perc, histogram"
bin	-INF	0
bin	0	0
bin	1	1
bin	2	0
statistic RandomGeometricGraph.rgnv[9] 	arrivalTime:histogram
field count 1
field mean 144.416
field stddev nan
field sum 144.416
field sqrsum 20855.981056
field min 144.416
field max 144.416
attr interpolationmode  none
attr source  arrivalTime
attr title  "arrival time, histogram"
bin	-INF	0
bin	143.916	0
bin	143.94933333333	0
bin	143.98266666667	0
bin	144.016	0
bin	144.04933333333	0
bin	144.08266666667	0
bin	144.116	0
bin	144.14933333333	0
bin	144.18266666667	0
bin	144.216	0
bin	144.24933333333	0
bin	144.28266666667	0
bin	144.316	0
bin	144.34933333333	0
bin	144.38266666667	0
bin	144.416	1
bin	144.44933333333	0
bin	144.48266666667	0
bin	144.516	0
bin	144.54933333333	0
bin	144.58266666667	0
bin	144.616	0
bin	144.64933333333	0
bin	144.68266666667	0
bin	144.716	0
bin	144.74933333333	0
bin	144.78266666667	0
bin	144.816	0
bin	144.84933333333	0
bin	144.88266666667	0
bin	144.916	0
statistic RandomGeometricGraph.rgnv[9] 	arrivalPerc:histogram
field count 1
field mean 1
field stddev nan
field sum 1
field sqrsum 1
field min 1
field max 1
attr interpolationmode  none
attr source  count(arrival)
attr title  "arrival perc, histogram"
bin	-INF	0
bin	0	0
bin	1	1
bin	2	0
statistic RandomGeometricGraph.rgnv[10] 	arrivalTime:histogram
field count 1
field mean 181.647
field stddev nan
field sum 181.647
field sqrsum 32995.632609
field min 181.647
field max 181.647
attr interpolationmode  none
attr source  arrivalTime
attr title  "arrival time, histogram"
bin	-INF	0
bin	181.147	0
bin	181.18033333333	0
bin	181.21366666667	0
bin	181.247	0
bin	181.28033333333	0
bin	181.31366666667	0
bin	181.347	0
bin	181.38033333333	0
bin	181.41366666667	0
bin	181.447	0
bin	181.48033333333	0
bin	181.51366666667	0
bin	181.547	0
bin	181.58033333333	0
bin	181.61366666667	0
bin	181.647	1
bin	181.68033333333	0
bin	181.71366666667	0
bin	181.747	0
bin	181.78033333333	0
bin	181.81366666667	0
bin	181.847	0
bin	181.88033333333	0
bin	181.91366666667	0
bin	181.947	0
bin	181.98033333333	0
bin	182.01366666667	0
bin	182.047	0
bin	182.08033333333	0
bin	182.11366666667	0
bin	182.147	0
statistic RandomGeometricGraph.rgnv[10] 	arrivalPerc:histogram
field count 1
field mean 1
field stddev nan
field sum 1
field sqrsum 1
field min 1
field max 1
attr interpolationmode  none
attr source  count(arrival)
attr title  "arrival perc, histogram"
bin	-INF	0
bin	0	0
bin	1	1
bin	2	0
statistic RandomGeometricGraph.rgnv[11] 	arrivalTime:histogram
field count 1
field mean 77.155
field stddev nan
field sum 77.155
field sqrsum 5952.894025
field min 77.155
field max 77.155
attr interpolationmode  none
attr source  arrivalTime
attr title  "arrival time, histogram"
bin	-INF	0
bin	76.655	0
bin	76.688333333333	0
bin	76.721666666667	0
bin	76.755	0
bin	76.788333333333	0
bin	76.821666666667	0
bin	76.855	0
bin	76.888333333333	0
bin	76.921666666667	0
bin	76.955	0
bin	76.988333333333	0
bin	77.021666666667	0
bin	77.055	0
bin	77.088333333333	0
bin	77.121666666667	0
bin	77.155	1
bin	77.188333333333	0
bin	77.221666666667	0
bin	77.255	0
bin	77.288333333333	0
bin	77.321666666667	0
bin	77.355	0
bin	77.388333333333	0
bin	77.421666666667	0
bin	77.455	0
bin	77.488333333333	0
bin	77.521666666667	0
bin	77.555	0
bin	77.588333333333	0
bin	77.621666666667	0
bin	77.655	0
statistic RandomGeometricGraph.rgnv[11] 	arrivalPerc:histogram
field count 1
field mean 1
field stddev nan
field sum 1
field sqrsum 1
field min 1
field max 1
attr interpolationmode  none
attr source  count(arrival)
attr title  "arrival perc, histogram"
bin	-INF	0
bin	0	0
bin	1	1
bin	2	0
statistic RandomGeometricGraph.rgnv[12] 	arrivalTime:histogram
field count 1
field mean 37.693
field stddev nan
field sum 37.693
field sqrsum 1420.762249
field min 37.693
field max 37.693
attr interpolationmode  none
attr source  arrivalTime
attr title  "arrival time, histogram"
bin	-INF	0
bin	37.193	0
bin	37.226333333333	0
bin	37.259666666667	0
bin	37.293	0
bin	37.326333333333	0
bin	37.359666666667	0
bin	37.393	0
bin	37.426333333333	0
bin	37.459666666667	0
bin	37.493	0
bin	37.526333333333	0
bin	37.559666666667	0
bin	37.593	0
bin	37.626333333333	0
bin	37.659666666667	0
bin	37.693	1
bin	37.726333333333	0
bin	37.759666666667	0
bin	37.793	0
bin	37.826333333333	0
bin	37.859666666667	0
bin	37.893	0
bin	37.926333333333	0
bin	37.959666666667	0
bin	37.993	0
bin	38.026333333333	0
bin	38.059666666667	0
bin	38.093	0
bin	38.126333333333	0
bin	38.159666666667	0
bin	38.193	0
statistic RandomGeometricGraph.rgnv[12] 	arrivalPerc:histogram
field count 1
field mean 1
field stddev nan
field sum 1
field sqrsum 1
field min 1
field max 1
attr interpolationmode  none
attr source  count(arrival)
attr title  "arrival perc, histogram"
bin	-INF	0
bin	0	0
bin	1	1
bin	2	0
statistic RandomGeometricGraph.rgnv[13] 	arrivalTime:histogram
field count 1
field mean 129.396
field stddev nan
field sum 129.396
field sqrsum 16743.324816
field min 129.396
field max 129.396
attr interpolationmode  none
attr source  arrivalTime
attr title  "arrival time, histogram"
bin	-INF	0
bin	128.896	0
bin	128.92933333333	0
bin	128.96266666667	0
bin	128.996	0
bin	129.02933333333	0
bin	129.06266666667	0
bin	129.096	0
bin	129.12933333333	0
bin	129.16266666667	0
bin	129.196	0
bin	129.22933333333	0
bin	129.26266666667	0
bin	129.296	0
bin	129.32933333333	0
bin	129.36266666667	0
bin	129.396	1
bin	129.42933333333	0
bin	129.46266666667	0
bin	129.496	0
bin	129.52933333333	0
bin	129.56266666667	0
bin	129.596	0
bin	129.62933333333	0
bin	129.66266666667	0
bin	129.696	0
bin	129.72933333333	0
bin	129.76266666667	0
bin	129.796	0
bin	129.82933333333	0
bin	129.86266666667	0
bin	129.896	0
statistic RandomGeometricGraph.rgnv[13] 	arrivalPerc:histogram
field count 1
field mean 1
field stddev nan
field sum 1
field sqrsum 1
field min 1
field max 1
attr interpolationmode  none
attr source  count(arrival)
attr title  "arrival perc, histogram"
bin	-INF	0
bin	0	0
bin	1	1
bin	2	0
statistic RandomGeometricGraph.rgnv[14] 	arrivalTime:histogram
field count 1
field mean 64.944
field stddev nan
field sum 64.944
field sqrsum 4217.723136
field min 64.944
field max 64.944
attr interpolationmode  none
attr source  arrivalTime
attr title  "arrival time, histogram"
bin	-INF	0
bin	64.444	0
bin	64.477333333333	0
bin	64.510666666667	0
bin	64.544	0
bin	64.577333333333	0
bin	64.610666666667	0
bin	64.644	0
bin	64.677333333333	0
bin	64.710666666667	0
bin	64.744	0
bin	64.777333333333	0
bin	64.810666666667	0
bin	64.844	0
bin	64.877333333333	0
bin	64.910666666667	0
bin	64.944	1
bin	64.977333333333	0
bin	65.010666666667	0
bin	65.044	0
bin	65.077333333333	0
bin	65.110666666667	0
bin	65.144	0
bin	65.177333333333	0
bin	65.210666666667	0
bin	65.244	0
bin	65.277333333333	0
bin	65.310666666667	0
bin	65.344	0
bin	65.377333333333	0
bin	65.410666666667	0
bin	65.444	0
statistic RandomGeometricGraph.rgnv[14] 	arrivalPerc:histogram
field count 1
field mean 1
field stddev nan
field sum 1
field sqrsum 1
field min 1
field max 1
attr interpolationmode  none
attr source  count(arrival)
attr title  "arrival perc, histogram"
bin	-INF	0
bin	0	0
bin	1	1
bin	2	0
statistic RandomGeometricGraph.rgnv[15] 	arrivalTime:histogram
field count 1
field mean 87.165
field stddev nan
field sum 87.165
field sqrsum 7597.737225
field min 87.165
field max 87.165
attr interpolationmode  none
attr source  arrivalTime
attr title  "arrival time, histogram"
bin	-INF	0
bin	86.665	0
bin	86.698333333333	0
bin	86.731666666667	0
bin	86.765	0
bin	86.798333333333	0
bin	86.831666666667	0
bin	86.865	0
bin	86.898333333333	0
bin	86.931666666667	0
bin	86.965	0
bin	86.998333333333	0
bin	87.031666666667	0
bin	87.065	0
bin	87.098333333333	0
bin	87.131666666667	0
bin	87.165	1
bin	87.198333333333	0
bin	87.231666666667	0
bin	87.265	0
bin	87.298333333333	0
bin	87.331666666667	0
bin	87.365	0
bin	87.398333333333	0
bin	87.431666666667	0
bin	87.465	0
bin	87.498333333333	0
bin	87.531666666667	0
bin	87.565	0
bin	87.598333333333	0
bin	87.631666666667	0
bin	87.665	0
statistic RandomGeometricGraph.rgnv[15] 	arrivalPerc:histogram
field count 1
field mean 1
field stddev nan
field sum 1
field sqrsum 1
field min 1
field max 1
attr interpolationmode  none
attr source  count(arrival)
attr title  "arrival perc, histogram"
bin	-INF	0
bin	0	0
bin	1	1
bin	2	0
statistic RandomGeometricGraph.rgnv[16] 	arrivalTime:histogram
field count 1
field mean 102.175
field stddev nan
field sum 102.175
field sqrsum 10439.730625
field min 102.175
field max 102.175
attr interpolationmode  none
attr source  arrivalTime
attr title  "arrival time, histogram"
bin	-INF	0
bin	101.675	0
bin	101.70833333333	0
bin	101.74166666667	0
bin	101.775	0
bin	101.80833333333	0
bin	101.84166666667	0
bin	101.875	0
bin	101.90833333333	0
bin	101.94166666667	0
bin	101.975	0
bin	102.00833333333	0
bin	102.04166666667	0
bin	102.075	0
bin	102.10833333333	0
bin	102.14166666667	0
bin	102.175	1
bin	102.20833333333	0
bin	102.24166666667	0
bin	102.275	0
bin	102.30833333333	0
bin	102.34166666667	0
bin	102.375	0
bin	102.40833333333	0
bin	102.44166666667	0
bin	102.475	0
bin	102.50833333333	0
bin	102.54166666667	0
bin	102.575	0
bin	102.60833333333	0
bin	102.64166666667	0
bin	102.675	0
statistic RandomGeometricGraph.rgnv[16] 	arrivalPerc:histogram
field count 1
field mean 1
field stddev nan
field sum 1
field sqrsum 1
field min 1
field max 1
attr interpolationmode  none
attr source  count(arrival)
attr title  "arrival perc, histogram"
bin	-INF	0
bin	0	0
bin	1	1
bin	2	0
statistic RandomGeometricGraph.rgnv[17] 	arrivalTime:histogram
field count 1
field mean 198.858
field stddev nan
field sum 198.858
field sqrsum 39544.504164
field min 198.858
field max 198.858
attr interpolationmode  none
attr source  arrivalTime
attr title  "arrival time, histogram"
bin	-INF	0
bin	198.358	0
bin	198.39133333333	0
bin	198.42466666667	0
bin	198.458	0
bin	198.49133333333	0
bin	198.52466666667	0
bin	198.558	0
bin	198.59133333333	0
bin	198.62466666667	0
bin	198.658	0
bin	198.69133333333	0
bin	198.72466666667	0
bin	198.758	0
bin	198.79133333333	0
bin	198.82466666667	0
bin	198.858	1
bin	198.89133333333	0
bin	198.92466666667	0
bin	198.958	0
bin	198.99133333333	0
bin	199.02466666667	0
bin	199.058	0
bin	199.09133333333	0
bin	199.12466666667	0
bin	199.158	0
bin	199.19133333333	0
bin	199.22466666667	0
bin	199.258	0
bin	199.29133333333	0
bin	199.32466666667	0
bin	199.358	0
statistic RandomGeometricGraph.rgnv[17] 	arrivalPerc:histogram
field count 1
field mean 1
field stddev nan
field sum 1
field sqrsum 1
field min 1
field max 1
attr interpolationmode  none
attr source  count(arrival)
attr title  "arrival perc, histogram"
bin	-INF	0
bin	0	0
bin	1	1
bin	2	0
statistic RandomGeometricGraph.rgnv[18] 	arrivalTime:histogram
field count 1
field mean 13.231
field stddev nan
field sum 13.231
field sqrsum 175.059361
field min 13.231
field max 13.231
attr interpolationmode  none
attr source  arrivalTime
attr title  "arrival time, histogram"
bin	-INF	0
bin	12.731	0
bin	12.764333333333	0
bin	12.797666666667	0
bin	12.831	0
bin	12.864333333333	0
bin	12.897666666667	0
bin	12.931	0
bin	12.964333333333	0
bin	12.997666666667	0
bin	13.031	0
bin	13.064333333333	0
bin	13.097666666667	0
bin	13.131	0
bin	13.164333333333	0
bin	13.197666666667	0
bin	13.231	1
bin	13.264333333333	0
bin	13.297666666667	0
bin	13.331	0
bin	13.364333333333	0
bin	13.397666666667	0
bin	13.431	0
bin	13.464333333333	0
bin	13.497666666667	0
bin	13.531	0
bin	13.564333333333	0
bin	13.597666666667	0
bin	13.631	0
bin	13.664333333333	0
bin	13.697666666667	0
bin	13.731	0
statistic RandomGeometricGraph.rgnv[18] 	arrivalPerc:histogram
field count 1
field mean 1
field stddev nan
field sum 1
field sqrsum 1
field min 1
field max 1
attr interpolationmode  none
attr source  count(arrival)
attr title  "arrival perc, histogram"
bin	-INF	0
bin	0	0
bin	1	1
bin	2	0
statistic RandomGeometricGraph.rgnv[19] 	arrivalTime:histogram
field count 1
field mean 102.175
field stddev nan
field sum 102.175
field sqrsum 10439.730625
field min 102.175
field max 102.175
attr interpolationmode  none
attr source  arrivalTime
attr title  "arrival time, histogram"
bin	-INF	0
bin	101.675	0
bin	101.70833333333	0
bin	101.74166666667	0
bin	101.775	0
bin	101.80833333333	0
bin	101.84166666667	0
bin	101.875	0
bin	101.90833333333	0
bin	101.94166666667	0
bin	101.975	0
bin	102.00833333333	0
bin	102.04166666667	0
bin	102.075	0
bin	102.10833333333	0
bin	102.14166666667	0
bin	102.175	1
bin	102.20833333333	0
bin	102.24166666667	0
bin	102.275	0
bin	102.30833333333	0
bin	102.34166666667	0
bin	102.375	0
bin	102.40833333333	0
bin	102.44166666667	0
bin	102.475	0
bin	102.50833333333	0
bin	102.54166666667	0
bin	102.575	0
bin	102.60833333333	0
bin	102.64166666667	0
bin	102.675	0
statistic RandomGeometricGraph.rgnv[19] 	arrivalPerc:histogram
field count 1
field mean 1
field stddev nan
field sum 1
field sqrsum 1
field min 1
field max 1
attr interpolationmode  none
attr source  count(arrival)
attr title  "arrival perc, histogram"
bin	-INF	0
bin	0	0
bin	1	1
bin	2	0
statistic RandomGeometricGraph.rgnv[20] 	arrivalTime:histogram
field count 1
field mean 37.703
field stddev nan
field sum 37.703
field sqrsum 1421.516209
field min 37.703
field max 37.703
attr interpolationmode  none
attr source  arrivalTime
attr title  "arrival time, histogram"
bin	-INF	0
bin	37.203	0
bin	37.236333333333	0
bin	37.269666666667	0
bin	37.303	0
bin	37.336333333333	0
bin	37.369666666667	0
bin	37.403	0
bin	37.436333333333	0
bin	37.469666666667	0
bin	37.503	0
bin	37.536333333333	0
bin	37.569666666667	0
bin	37.603	0
bin	37.636333333333	0
bin	37.669666666667	0
bin	37.703	1
bin	37.736333333333	0
bin	37.769666666667	0
bin	37.803	0
bin	37.836333333333	0
bin	37.869666666667	0
bin	37.903	0
bin	37.936333333333	0
bin	37.969666666667	0
bin	38.003	0
bin	38.036333333333	0
bin	38.069666666667	0
bin	38.103	0
bin	38.136333333333	0
bin	38.169666666667	0
bin	38.203	0
statistic RandomGeometricGraph.rgnv[20] 	arrivalPerc:histogram
field count 1
field mean 1
field stddev nan
field sum 1
field sqrsum 1
field min 1
field max 1
attr interpolationmode  none
attr source  count(arrival)
attr title  "arrival perc, histogram"
bin	-INF	0
bin	0	0
bin	1	1
bin	2	0
statistic RandomGeometricGraph.rgnv[21] 	arrivalTime:histogram
field count 1
field mean 87.165
field stddev nan
field sum 87.165
field sqrsum 7597.737225
field min 87.165
field max 87.165
attr interpolationmode  none
attr source  arrivalTime
attr title  "arrival time, histogram"
bin	-INF	0
bin	86.665	0
bin	86.698333333333	0
bin	86.731666666667	0
bin	86.765	0
bin	86.798333333333	0
bin	86.831666666667	0
bin	86.865	0
bin	86.898333333333	0
bin	86.931666666667	0
bin	86.965	0
bin	86.998333333333	0
bin	87.031666666667	0
bin	87.065	0
bin	87.098333333333	0
bin	87.131666666667	0
bin	87.165	1
bin	87.198333333333	0
bin	87.231666666667	0
bin	87.265	0
bin	87.298333333333	0
bin	87.331666666667	0
bin	87.365	0
bin	87.398333333333	0
bin	87.431666666667	0
bin	87.465	0
bin	87.498333333333	0
bin	87.531666666667	0
bin	87.565	0
bin	87.598333333333	0
bin	87.631666666667	0
bin	87.665	0
statistic RandomGeometricGraph.rgnv[21] 	arrivalPerc:histogram
field count 1
field mean 1
field stddev nan
field sum 1
field sqrsum 1
field min 1
field max 1
attr interpolationmode  none
attr source  count(arrival)
attr title  "arrival perc, histogram"
bin	-INF	0
bin	0	0
bin	1	1
bin	2	0
statistic RandomGeometricGraph.rgnv[22] 	arrivalTime:histogram
field count 1
field mean 92.165
field stddev nan
field sum 92.165
field sqrsum 8494.387225
field min 92.165
field max 92.165
attr interpolationmode  none
attr source  arrivalTime
attr title  "arrival time, histogram"
bin	-INF	0
bin	91.665	0
bin	91.698333333333	0
bin	91.731666666667	0
bin	91.765	0
bin	91.798333333333	0
bin	91.831666666667	0
bin	91.865	0
bin	91.898333333333	0
bin	91.931666666667	0
bin	91.965	0
bin	91.998333333333	0
bin	92.031666666667	0
bin	92.065	0
bin	92.098333333333	0
bin	92.131666666667	0
bin	92.165	1
bin	92.198333333333	0
bin	92.231666666667	0
bin	92.265	0
bin	92.298333333333	0
bin	92.331666666667	0
bin	92.365	0
bin	92.398333333333	0
bin	92.431666666667	0
bin	92.465	0
bin	92.498333333333	0
bin	92.531666666667	0
bin	92.565	0
bin	92.598333333333	0
bin	92.631666666667	0
bin	92.665	0
statistic RandomGeometricGraph.rgnv[22] 	arrivalPerc:histogram
field count 1
field mean 1
field stddev nan
field sum 1
field sqrsum 1
field min 1
field max 1
attr interpolationmode  none
attr source  count(arrival)
attr title  "arrival perc, histogram"
bin	-INF	0
bin	0	0
bin	1	1
bin	2	0
statistic RandomGeometricGraph.rgnv[23] 	arrivalTime:histogram
field count 1
field mean 64.944
field stddev nan
field sum 64.944
field sqrsum 4217.723136
field min 64.944
field max 64.944
attr interpolationmode  none
attr source  arrivalTime
attr title  "arrival time, histogram"
bin	-INF	0
bin	64.444	0
bin	64.477333333333	0
bin	64.510666666667	0
bin	64.544	0
bin	64.577333333333	0
bin	64.610666666667	0
bin	64.644	0
bin	64.677333333333	0
bin	64.710666666667	0
bin	64.744	0
bin	64.777333333333	0
bin	64.810666666667	0
bin	64.844	0
bin	64.877333333333	0
bin	64.910666666667	0
bin	64.944	1
bin	64.977333333333	0
bin	65.010666666667	0
bin	65.044	0
bin	65.077333333333	0
bin	65.110666666667	0
bin	65.144	0
bin	65.177333333333	0
bin	65.210666666667	0
bin	65.244	0
bin	65.277333333333	0
bin	65.310666666667	0
bin	65.344	0
bin	65.377333333333	0
bin	65.410666666667	0
bin	65.444	0
statistic RandomGeometricGraph.rgnv[23] 	arrivalPerc:histogram
field count 1
field mean 1
field stddev nan
field sum 1
field sqrsum 1
field min 1
field max 1
attr interpolationmode  none
attr source  count(arrival)
attr title  "arrival perc, histogram"
bin	-INF	0
bin	0	0
bin	1	1
bin	2	0
statistic RandomGeometricGraph.rgnv[24] 	arrivalTime:histogram
field count 1
field mean 188.848
field stddev nan
field sum 188.848
field sqrsum 35663.567104
field min 188.848
field max 188.848
attr interpolationmode  none
attr source  arrivalTime
attr title  "arrival time, histogram"
bin	-INF	0
bin	188.348	0
bin	188.38133333333	0
bin	188.41466666667	0
bin	188.448	0
bin	188.48133333333	0
bin	188.51466666667	0
bin	188.548	0
bin	188.58133333333	0
bin	188.61466666667	0
bin	188.648	0
bin	188.68133333333	0
bin	188.71466666667	0
bin	188.748	0
bin	188.78133333333	0
bin	188.81466666667	0
bin	188.848	1
bin	188.88133333333	0
bin	188.91466666667	0
bin	188.948	0
bin	188.98133333333	0
bin	189.01466666667	0
bin	189.048	0
bin	189.08133333333	0
bin	189.11466666667	0
bin	189.148	0
bin	189.18133333333	0
bin	189.21466666667	0
bin	189.248	0
bin	189.28133333333	0
bin	189.31466666667	0
bin	189.348	0
statistic RandomGeometricGraph.rgnv[24] 	arrivalPerc:histogram
field count 1
field mean 1
field stddev nan
field sum 1
field sqrsum 1
field min 1
field max 1
attr interpolationmode  none
attr source  count(arrival)
attr title  "arrival perc, histogram"
bin	-INF	0
bin	0	0
bin	1	1
bin	2	0
statistic RandomGeometricGraph.rgnv[25] 	arrivalTime:histogram
field count 1
field mean 151.617
field stddev nan
field sum 151.617
field sqrsum 22987.714689
field min 151.617
field max 151.617
attr interpolationmode  none
attr source  arrivalTime
attr title  "arrival time, histogram"
bin	-INF	0
bin	151.117	0
bin	151.15033333333	0
bin	151.18366666667	0
bin	151.217	0
bin	151.25033333333	0
bin	151.28366666667	0
bin	151.317	0
bin	151.35033333333	0
bin	151.38366666667	0
bin	151.417	0
bin	151.45033333333	0
bin	151.48366666667	0
bin	151.517	0
bin	151.55033333333	0
bin	151.58366666667	0
bin	151.617	1
bin	151.65033333333	0
bin	151.68366666667	0
bin	151.717	0
bin	151.75033333333	0
bin	151.78366666667	0
bin	151.817	0
bin	151.85033333333	0
bin	151.88366666667	0
bin	151.917	0
bin	151.95033333333	0
bin	151.98366666667	0
bin	152.017	0
bin	152.05033333333	0
bin	152.08366666667	0
bin	152.117	0
statistic RandomGeometricGraph.rgnv[25] 	arrivalPerc:histogram
field count 1
field mean 1
field stddev nan
field sum 1
field sqrsum 1
field min 1
field max 1
attr interpolationmode  none
attr source  count(arrival)
attr title  "arrival perc, histogram"
bin	-INF	0
bin	0	0
bin	1	1
bin	2	0
statistic RandomGeometricGraph.rgnv[26] 	arrivalTime:histogram
field count 1
field mean 25.472
field stddev nan
field sum 25.472
field sqrsum 648.822784
field min 25.472
field max 25.472
attr interpolationmode  none
attr source  arrivalTime
attr title  "arrival time, histogram"
bin	-INF	0
bin	24.972	0
bin	25.005333333333	0
bin	25.038666666667	0
bin	25.072	0
bin	25.105333333333	0
bin	25.138666666667	0
bin	25.172	0
bin	25.205333333333	0
bin	25.238666666667	0
bin	25.272	0
bin	25.305333333333	0
bin	25.338666666667	0
bin	25.372	0
bin	25.405333333333	0
bin	25.438666666667	0
bin	25.472	1
bin	25.505333333333	0
bin	25.538666666667	0
bin	25.572	0
bin	25.605333333333	0
bin	25.638666666667	0
bin	25.672	0
bin	25.705333333333	0
bin	25.738666666667	0
bin	25.772	0
bin	25.805333333333	0
bin	25.838666666667	0
bin	25.872	0
bin	25.905333333333	0
bin	25.938666666667	0
bin	25.972	0
statistic RandomGeometricGraph.rgnv[26] 	arrivalPerc:histogram
field count 1
field mean 1
field stddev nan
field sum 1
field sqrsum 1
field min 1
field max 1
attr interpolationmode  none
attr source  count(arrival)
attr title  "arrival perc, histogram"
bin	-INF	0
bin	0	0
bin	1	1
bin	2	0
statistic RandomGeometricGraph.rgnv[27] 	arrivalTime:histogram
field count 0
field mean nan
field stddev nan
field sum 0
field sqrsum 0
field min nan
field max nan
attr interpolationmode  none
attr source  arrivalTime
attr title  "arrival time, histogram"
bin	-INF	0
bin	-0.5	0
bin	-0.46666666666667	0
bin	-0.43333333333333	0
bin	-0.4	0
bin	-0.36666666666667	0
bin	-0.33333333333333	0
bin	-0.3	0
bin	-0.26666666666667	0
bin	-0.23333333333333	0
bin	-0.2	0
bin	-0.16666666666667	0
bin	-0.13333333333333	0
bin	-0.1	0
bin	-0.066666666666667	0
bin	-0.033333333333333	0
bin	0	0
bin	0.033333333333333	0
bin	0.066666666666667	0
bin	0.1	0
bin	0.13333333333333	0
bin	0.16666666666667	0
bin	0.2	0
bin	0.23333333333333	0
bin	0.26666666666667	0
bin	0.3	0
bin	0.33333333333333	0
bin	0.36666666666667	0
bin	0.4	0
bin	0.43333333333333	0
bin	0.46666666666667	0
bin	0.5	0
statistic RandomGeometricGraph.rgnv[27] 	arrivalPerc:histogram
field count 0
field mean nan
field stddev nan
field sum 0
field sqrsum 0
field min nan
field max nan
attr interpolationmode  none
attr source  count(arrival)
attr title  "arrival perc, histogram"
bin	-INF	0
bin	-0.5	0
bin	-0.46666666666667	0
bin	-0.43333333333333	0
bin	-0.4	0
bin	-0.36666666666667	0
bin	-0.33333333333333	0
bin	-0.3	0
bin	-0.26666666666667	0
bin	-0.23333333333333	0
bin	-0.2	0
bin	-0.16666666666667	0
bin	-0.13333333333333	0
bin	-0.1	0
bin	-0.066666666666667	0
bin	-0.033333333333333	0
bin	0	0
bin	0.033333333333333	0
bin	0.066666666666667	0
bin	0.1	0
bin	0.13333333333333	0
bin	0.16666666666667	0
bin	0.2	0
bin	0.23333333333333	0
bin	0.26666666666667	0
bin	0.3	0
bin	0.33333333333333	0
bin	0.36666666666667	0
bin	0.4	0
bin	0.43333333333333	0
bin	0.46666666666667	0
bin	0.5	0
statistic RandomGeometricGraph.rgnv[28] 	arrivalTime:histogram
field count 1
field mean 64.944
field stddev nan
field sum 64.944
field sqrsum 4217.723136
field min 64.944
field max 64.944
attr interpolationmode  none
attr source  arrivalTime
attr title  "arrival time, histogram"
bin	-INF	0
bin	64.444	0
bin	64.477333333333	0
bin	64.510666666667	0
bin	64.544	0
bin	64.577333333333	0
bin	64.610666666667	0
bin	64.644	0
bin	64.677333333333	0
bin	64.710666666667	0
bin	64.744	0
bin	64.777333333333	0
bin	64.810666666667	0
bin	64.844	0
bin	64.877333333333	0
bin	64.910666666667	0
bin	64.944	1
bin	64.977333333333	0
bin	65.010666666667	0
bin	65.044	0
bin	65.077333333333	0
bin	65.110666666667	0
bin	65.144	0
bin	65.177333333333	0
bin	65.210666666667	0
bin	65.244	0
bin	65.277333333333	0
bin	65.310666666667	0
bin	65.344	0
bin	65.377333333333	0
bin	65.410666666667	0
bin	65.444	0
statistic RandomGeometricGraph.rgnv[28] 	arrivalPerc:histogram
field count 1
field mean 1
field stddev nan
field sum 1
field sqrsum 1
field min 1
field max 1
attr interpolationmode  none
attr source  count(arrival)
attr title  "arrival perc, histogram"
bin	-INF	0
bin	0	0
bin	1	1
bin	2	0
statistic RandomGeometricGraph.rgnv[29] 	arrivalTime:histogram
field count 1
field mean 119.396
field stddev nan
field sum 119.396
field sqrsum 14255.404816
field min 119.396
field max 119.396
attr interpolationmode  none
attr source  arrivalTime
attr title  "arrival time, histogram"
bin	-INF	0
bin	118.896	0
bin	118.92933333333	0
bin	118.96266666667	0
bin	118.996	0
bin	119.02933333333	0
bin	119.06266666667	0
bin	119.096	0
bin	119.12933333333	0
bin	119.16266666667	0
bin	119.196	0
bin	119.22933333333	0
bin	119.26266666667	0
bin	119.296	0
bin	119.32933333333	0
bin	119.36266666667	0
bin	119.396	1
bin	119.42933333333	0
bin	119.46266666667	0
bin	119.496	0
bin	119.52933333333	0
bin	119.56266666667	0
bin	119.596	0
bin	119.62933333333	0
bin	119.66266666667	0
bin	119.696	0
bin	119.72933333333	0
bin	119.76266666667	0
bin	119.796	0
bin	119.82933333333	0
bin	119.86266666667	0
bin	119.896	0
statistic RandomGeometricGraph.rgnv[29] 	arrivalPerc:histogram
field count 1
field mean 1
field stddev nan
field sum 1
field sqrsum 1
field min 1
field max 1
attr interpolationmode  none
attr source  count(arrival)
attr title  "arrival perc, histogram"
bin	-INF	0
bin	0	0
bin	1	1
bin	2	0
statistic RandomGeometricGraph.rgnv[30] 	arrivalTime:histogram
field count 1
field mean 166.627
field stddev nan
field sum 166.627
field sqrsum 27764.557129
field min 166.627
field max 166.627
attr interpolationmode  none
attr source  arrivalTime
attr title  "arrival time, histogram"
bin	-INF	0
bin	166.127	0
bin	166.16033333333	0
bin	166.19366666667	0
bin	166.227	0
bin	166.26033333333	0
bin	166.29366666667	0
bin	166.327	0
bin	166.36033333333	0
bin	166.39366666667	0
bin	166.427	0
bin	166.46033333333	0
bin	166.49366666667	0
bin	166.527	0
bin	166.56033333333	0
bin	166.59366666667	0
bin	166.627	1
bin	166.66033333333	0
bin	166.69366666667	0
bin	166.727	0
bin	166.76033333333	0
bin	166.79366666667	0
bin	166.827	0
bin	166.86033333333	0
bin	166.89366666667	0
bin	166.927	0
bin	166.96033333333	0
bin	166.99366666667	0
bin	167.027	0
bin	167.06033333333	0
bin	167.09366666667	0
bin	167.127	0
statistic RandomGeometricGraph.rgnv[30] 	arrivalPerc:histogram
field count 1
field mean 1
field stddev nan
field sum 1
field sqrsum 1
field min 1
field max 1
attr interpolationmode  none
attr source  count(arrival)
attr title  "arrival perc, histogram"
bin	-INF	0
bin	0	0
bin	1	1
bin	2	0
statistic RandomGeometricGraph.rgnv[31] 	arrivalTime:histogram
field count 1
field mean 208.868
field stddev nan
field sum 208.868
field sqrsum 43625.841424
field min 208.868
field max 208.868
attr interpolationmode  none
attr source  arrivalTime
attr title  "arrival time, histogram"
bin	-INF	0
bin	208.368	0
bin	208.40133333333	0
bin	208.43466666667	0
bin	208.468	0
bin	208.50133333333	0
bin	208.53466666667	0
bin	208.568	0
bin	208.60133333333	0
bin	208.63466666667	0
bin	208.668	0
bin	208.70133333333	0
bin	208.73466666667	0
bin	208.768	0
bin	208.80133333333	0
bin	208.83466666667	0
bin	208.868	1
bin	208.90133333333	0
bin	208.93466666667	0
bin	208.968	0
bin	209.00133333333	0
bin	209.03466666667	0
bin	209.068	0
bin	209.10133333333	0
bin	209.13466666667	0
bin	209.168	0
bin	209.20133333333	0
bin	209.23466666667	0
bin	209.268	0
bin	209.30133333333	0
bin	209.33466666667	0
bin	209.368	0
statistic RandomGeometricGraph.rgnv[31] 	arrivalPerc:histogram
field count 1
field mean 1
field stddev nan
field sum 1
field sqrsum 1
field min 1
field max 1
attr interpolationmode  none
attr source  count(arrival)
attr title  "arrival perc, histogram"
bin	-INF	0
bin	0	0
bin	1	1
bin	2	0
statistic RandomGeometricGraph.rgnv[32] 	arrivalTime:histogram
field count 1
field mean 171.637
field stddev nan
field sum 171.637
field sqrsum 29459.259769
field min 171.637
field max 171.637
attr interpolationmode  none
attr source  arrivalTime
attr title  "arrival time, histogram"
bin	-INF	0
bin	171.137	0
bin	171.17033333333	0
bin	171.20366666667	0
bin	171.237	0
bin	171.27033333333	0
bin	171.30366666667	0
bin	171.337	0
bin	171.37033333333	0
bin	171.40366666667	0
bin	171.437	0
bin	171.47033333333	0
bin	171.50366666667	0
bin	171.537	0
bin	171.57033333333	0
bin	171.60366666667	0
bin	171.637	1
bin	171.67033333333	0
bin	171.70366666667	0
bin	171.737	0
bin	171.77033333333	0
bin	171.80366666667	0
bin	171.837	0
bin	171.87033333333	0
bin	171.90366666667	0
bin	171.937	0
bin	171.97033333333	0
bin	172.00366666667	0
bin	172.037	0
bin	172.07033333333	0
bin	172.10366666667	0
bin	172.137	0
statistic RandomGeometricGraph.rgnv[32] 	arrivalPerc:histogram
field count 1
field mean 1
field stddev nan
field sum 1
field sqrsum 1
field min 1
field max 1
attr interpolationmode  none
attr source  count(arrival)
attr title  "arrival perc, histogram"
bin	-INF	0
bin	0	0
bin	1	1
bin	2	0
statistic RandomGeometricGraph.rgnv[33] 	arrivalTime:histogram
field count 1
field mean 139.406
field stddev nan
field sum 139.406
field sqrsum 19434.032836
field min 139.406
field max 139.406
attr interpolationmode  none
attr source  arrivalTime
attr title  "arrival time, histogram"
bin	-INF	0
bin	138.906	0
bin	138.93933333333	0
bin	138.97266666667	0
bin	139.006	0
bin	139.03933333333	0
bin	139.07266666667	0
bin	139.106	0
bin	139.13933333333	0
bin	139.17266666667	0
bin	139.206	0
bin	139.23933333333	0
bin	139.27266666667	0
bin	139.306	0
bin	139.33933333333	0
bin	139.37266666667	0
bin	139.406	1
bin	139.43933333333	0
bin	139.47266666667	0
bin	139.506	0
bin	139.53933333333	0
bin	139.57266666667	0
bin	139.606	0
bin	139.63933333333	0
bin	139.67266666667	0
bin	139.706	0
bin	139.73933333333	0
bin	139.77266666667	0
bin	139.806	0
bin	139.83933333333	0
bin	139.87266666667	0
bin	139.906	0
statistic RandomGeometricGraph.rgnv[33] 	arrivalPerc:histogram
field count 1
field mean 1
field stddev nan
field sum 1
field sqrsum 1
field min 1
field max 1
attr interpolationmode  none
attr source  count(arrival)
attr title  "arrival perc, histogram"
bin	-INF	0
bin	0	0
bin	1	1
bin	2	0
statistic RandomGeometricGraph.rgnv[34] 	arrivalTime:histogram
field count 1
field mean 114.386
field stddev nan
field sum 114.386
field sqrsum 13084.156996
field min 114.386
field max 114.386
attr interpolationmode  none
attr source  arrivalTime
attr title  "arrival time, histogram"
bin	-INF	0
bin	113.886	0
bin	113.91933333333	0
bin	113.95266666667	0
bin	113.986	0
bin	114.01933333333	0
bin	114.05266666667	0
bin	114.086	0
bin	114.11933333333	0
bin	114.15266666667	0
bin	114.186	0
bin	114.21933333333	0
bin	114.25266666667	0
bin	114.286	0
bin	114.31933333333	0
bin	114.35266666667	0
bin	114.386	1
bin	114.41933333333	0
bin	114.45266666667	0
bin	114.486	0
bin	114.51933333333	0
bin	114.55266666667	0
bin	114.586	0
bin	114.61933333333	0
bin	114.65266666667	0
bin	114.686	0
bin	114.71933333333	0
bin	114.75266666667	0
bin	114.786	0
bin	114.81933333333	0
bin	114.85266666667	0
bin	114.886	0
statistic RandomGeometricGraph.rgnv[34] 	arrivalPerc:histogram
field count 1
field mean 1
field stddev nan
field sum 1
field sqrsum 1
field min 1
field max 1
attr interpolationmode  none
attr source  count(arrival)
attr title  "arrival perc, histogram"
bin	-INF	0
bin	0	0
bin	1	1
bin	2	0
statistic RandomGeometricGraph.rgnv[35] 	arrivalTime:histogram
field count 1
field mean 69.954
field stddev nan
field sum 69.954
field sqrsum 4893.562116
field min 69.954
field max 69.954
attr interpolationmode  none
attr source  arrivalTime
attr title  "arrival time, histogram"
bin	-INF	0
bin	69.454	0
bin	69.487333333333	0
bin	69.520666666667	0
bin	69.554	0
bin	69.587333333333	0
bin	69.620666666667	0
bin	69.654	0
bin	69.687333333333	0
bin	69.720666666667	0
bin	69.754	0
bin	69.787333333333	0
bin	69.820666666667	0
bin	69.854	0
bin	69.887333333333	0
bin	69.920666666667	0
bin	69.954	1
bin	69.987333333333	0
bin	70.020666666667	0
bin	70.054	0
bin	70.087333333333	0
bin	70.120666666667	0
bin	70.154	0
bin	70.187333333333	0
bin	70.220666666667	0
bin	70.254	0
bin	70.287333333333	0
bin	70.320666666667	0
bin	70.354	0
bin	70.387333333333	0
bin	70.420666666667	0
bin	70.454	0
statistic RandomGeometricGraph.rgnv[35] 	arrivalPerc:histogram
field count 1
field mean 1
field stddev nan
field sum 1
field sqrsum 1
field min 1
field max 1
attr interpolationmode  none
attr source  count(arrival)
attr title  "arrival perc, histogram"
bin	-INF	0
bin	0	0
bin	1	1
bin	2	0
statistic RandomGeometricGraph.rgnv[36] 	arrivalTime:histogram
field count 1
field mean 107.185
field stddev nan
field sum 107.185
field sqrsum 11488.624225
field min 107.185
field max 107.185
attr interpolationmode  none
attr source  arrivalTime
attr title  "arrival time, histogram"
bin	-INF	0
bin	106.685	0
bin	106.71833333333	0
bin	106.75166666667	0
bin	106.785	0
bin	106.81833333333	0
bin	106.85166666667	0
bin	106.885	0
bin	106.91833333333	0
bin	106.95166666667	0
bin	106.985	0
bin	107.01833333333	0
bin	107.05166666667	0
bin	107.085	0
bin	107.11833333333	0
bin	107.15166666667	0
bin	107.185	1
bin	107.21833333333	0
bin	107.25166666667	0
bin	107.285	0
bin	107.31833333333	0
bin	107.35166666667	0
bin	107.385	0
bin	107.41833333333	0
bin	107.45166666667	0
bin	107.485	0
bin	107.51833333333	0
bin	107.55166666667	0
bin	107.585	0
bin	107.61833333333	0
bin	107.65166666667	0
bin	107.685	0
statistic RandomGeometricGraph.rgnv[36] 	arrivalPerc:histogram
field count 1
field mean 1
field stddev nan
field sum 1
field sqrsum 1
field min 1
field max 1
attr interpolationmode  none
attr source  count(arrival)
attr title  "arrival perc, histogram"
bin	-INF	0
bin	0	0
bin	1	1
bin	2	0
statistic RandomGeometricGraph.rgnv[37] 	arrivalTime:histogram
field count 1
field mean 49.924
field stddev nan
field sum 49.924
field sqrsum 2492.405776
field min 49.924
field max 49.924
attr interpolationmode  none
attr source  arrivalTime
attr title  "arrival time, histogram"
bin	-INF	0
bin	49.424	0
bin	49.457333333333	0
bin	49.490666666667	0
bin	49.524	0
bin	49.557333333333	0
bin	49.590666666667	0
bin	49.624	0
bin	49.657333333333	0
bin	49.690666666667	0
bin	49.724	0
bin	49.757333333333	0
bin	49.790666666667	0
bin	49.824	0
bin	49.857333333333	0
bin	49.890666666667	0
bin	49.924	1
bin	49.957333333333	0
bin	49.990666666667	0
bin	50.024	0
bin	50.057333333333	0
bin	50.090666666667	0
bin	50.124	0
bin	50.157333333333	0
bin	50.190666666667	0
bin	50.224	0
bin	50.257333333333	0
bin	50.290666666667	0
bin	50.324	0
bin	50.357333333333	0
bin	50.390666666667	0
bin	50.424	0
statistic RandomGeometricGraph.rgnv[37] 	arrivalPerc:histogram
field count 1
field mean 1
field stddev nan
field sum 1
field sqrsum 1
field min 1
field max 1
attr interpolationmode  none
attr source  count(arrival)
attr title  "arrival perc, histogram"
bin	-INF	0
bin	0	0
bin	1	1
bin	2	0
statistic RandomGeometricGraph.rgnv[38] 	arrivalTime:histogram
field count 1
field mean 124.396
field stddev nan
field sum 124.396
field sqrsum 15474.364816
field min 124.396
field max 124.396
attr interpolationmode  none
attr source  arrivalTime
attr title  "arrival time, histogram"
bin	-INF	0
bin	123.896	0
bin	123.92933333333	0
bin	123.96266666667	0
bin	123.996	0
bin	124.02933333333	0
bin	124.06266666667	0
bin	124.096	0
bin	124.12933333333	0
bin	124.16266666667	0
bin	124.196	0
bin	124.22933333333	0
bin	124.26266666667	0
bin	124.296	0
bin	124.32933333333	0
bin	124.36266666667	0
bin	124.396	1
bin	124.42933333333	0
bin	124.46266666667	0
bin	124.496	0
bin	124.52933333333	0
bin	124.56266666667	0
bin	124.596	0
bin	124.62933333333	0
bin	124.66266666667	0
bin	124.696	0
bin	124.72933333333	0
bin	124.76266666667	0
bin	124.796	0
bin	124.82933333333	0
bin	124.86266666667	0
bin	124.896	0
statistic RandomGeometricGraph.rgnv[38] 	arrivalPerc:histogram
field count 1
field mean 1
field stddev nan
field sum 1
field sqrsum 1
field min 1
field max 1
attr interpolationmode  none
attr source  count(arrival)
attr title  "arrival perc, histogram"
bin	-INF	0
bin	0	0
bin	1	1
bin	2	0
statistic RandomGeometricGraph.rgnv[39] 	arrivalTime:histogram
field count 1
field mean 97.175
field stddev nan
field sum 97.175
field sqrsum 9442.980625
field min 97.175
field max 97.175
attr interpolationmode  none
attr source  arrivalTime
attr title  "arrival time, histogram"
bin	-INF	0
bin	96.675	0
bin	96.708333333333	0
bin	96.741666666667	0
bin	96.775	0
bin	96.808333333333	0
bin	96.841666666667	0
bin	96.875	0
bin	96.908333333333	0
bin	96.941666666667	0
bin	96.975	0
bin	97.008333333333	0
bin	97.041666666667	0
bin	97.075	0
bin	97.108333333333	0
bin	97.141666666667	0
bin	97.175	1
bin	97.208333333333	0
bin	97.241666666667	0
bin	97.275	0
bin	97.308333333333	0
bin	97.341666666667	0
bin	97.375	0
bin	97.408333333333	0
bin	97.441666666667	0
bin	97.475	0
bin	97.508333333333	0
bin	97.541666666667	0
bin	97.575	0
bin	97.608333333333	0
bin	97.641666666667	0
bin	97.675	0
statistic RandomGeometricGraph.rgnv[39] 	arrivalPerc:histogram
field count 1
field mean 1
field stddev nan
field sum 1
field sqrsum 1
field min 1
field max 1
attr interpolationmode  none
attr source  count(arrival)
attr title  "arrival perc, histogram"
bin	-INF	0
bin	0	0
bin	1	1
bin	2	0
statistic RandomGeometricGraph.rgnv[40] 	arrivalTime:histogram
field count 1
field mean 213.868
field stddev nan
field sum 213.868
field sqrsum 45739.521424
field min 213.868
field max 213.868
attr interpolationmode  none
attr source  arrivalTime
attr title  "arrival time, histogram"
bin	-INF	0
bin	213.368	0
bin	213.40133333333	0
bin	213.43466666667	0
bin	213.468	0
bin	213.50133333333	0
bin	213.53466666667	0
bin	213.568	0
bin	213.60133333333	0
bin	213.63466666667	0
bin	213.668	0
bin	213.70133333333	0
bin	213.73466666667	0
bin	213.768	0
bin	213.80133333333	0
bin	213.83466666667	0
bin	213.868	1
bin	213.90133333333	0
bin	213.93466666667	0
bin	213.968	0
bin	214.00133333333	0
bin	214.03466666667	0
bin	214.068	0
bin	214.10133333333	0
bin	214.13466666667	0
bin	214.168	0
bin	214.20133333333	0
bin	214.23466666667	0
bin	214.268	0
bin	214.30133333333	0
bin	214.33466666667	0
bin	214.368	0
statistic RandomGeometricGraph.rgnv[40] 	arrivalPerc:histogram
field count 1
field mean 1
field stddev nan
field sum 1
field sqrsum 1
field min 1
field max 1
attr interpolationmode  none
attr source  count(arrival)
attr title  "arrival perc, histogram"
bin	-INF	0
bin	0	0
bin	1	1
bin	2	0
statistic RandomGeometricGraph.rgnv[41] 	arrivalTime:histogram
field count 1
field mean 156.627
field stddev nan
field sum 156.627
field sqrsum 24532.017129
field min 156.627
field max 156.627
attr interpolationmode  none
attr source  arrivalTime
attr title  "arrival time, histogram"
bin	-INF	0
bin	156.127	0
bin	156.16033333333	0
bin	156.19366666667	0
bin	156.227	0
bin	156.26033333333	0
bin	156.29366666667	0
bin	156.327	0
bin	156.36033333333	0
bin	156.39366666667	0
bin	156.427	0
bin	156.46033333333	0
bin	156.49366666667	0
bin	156.527	0
bin	156.56033333333	0
bin	156.59366666667	0
bin	156.627	1
bin	156.66033333333	0
bin	156.69366666667	0
bin	156.727	0
bin	156.76033333333	0
bin	156.79366666667	0
bin	156.827	0
bin	156.86033333333	0
bin	156.89366666667	0
bin	156.927	0
bin	156.96033333333	0
bin	156.99366666667	0
bin	157.027	0
bin	157.06033333333	0
bin	157.09366666667	0
bin	157.127	0
statistic RandomGeometricGraph.rgnv[41] 	arrivalPerc:histogram
field count 1
field mean 1
field stddev nan
field sum 1
field sqrsum 1
field min 1
field max 1
attr interpolationmode  none
attr source  count(arrival)
attr title  "arrival perc, histogram"
bin	-INF	0
bin	0	0
bin	1	1
bin	2	0
statistic RandomGeometricGraph.rgnv[42] 	arrivalTime:histogram
field count 1
field mean 25.462
field stddev nan
field sum 25.462
field sqrsum 648.313444
field min 25.462
field max 25.462
attr interpolationmode  none
attr source  arrivalTime
attr title  "arrival time, histogram"
bin	-INF	0
bin	24.962	0
bin	24.995333333333	0
bin	25.028666666667	0
bin	25.062	0
bin	25.095333333333	0
bin	25.128666666667	0
bin	25.162	0
bin	25.195333333333	0
bin	25.228666666667	0
bin	25.262	0
bin	25.295333333333	0
bin	25.328666666667	0
bin	25.362	0
bin	25.395333333333	0
bin	25.428666666667	0
bin	25.462	1
bin	25.495333333333	0
bin	25.528666666667	0
bin	25.562	0
bin	25.595333333333	0
bin	25.628666666667	0
bin	25.662	0
bin	25.695333333333	0
bin	25.728666666667	0
bin	25.762	0
bin	25.795333333333	0
bin	25.828666666667	0
bin	25.862	0
bin	25.895333333333	0
bin	25.928666666667	0
bin	25.962	0
statistic RandomGeometricGraph.rgnv[42] 	arrivalPerc:histogram
field count 1
field mean 1
field stddev nan
field sum 1
field sqrsum 1
field min 1
field max 1
attr interpolationmode  none
attr source  count(arrival)
attr title  "arrival perc, histogram"
bin	-INF	0
bin	0	0
bin	1	1
bin	2	0
statistic RandomGeometricGraph.rgnv[43] 	arrivalTime:histogram
field count 1
field mean 203.868
field stddev nan
field sum 203.868
field sqrsum 41562.161424
field min 203.868
field max 203.868
attr interpolationmode  none
attr source  arrivalTime
attr title  "arrival time, histogram"
bin	-INF	0
bin	203.368	0
bin	203.40133333333	0
bin	203.43466666667	0
bin	203.468	0
bin	203.50133333333	0
bin	203.53466666667	0
bin	203.568	0
bin	203.60133333333	0
bin	203.63466666667	0
bin	203.668	0
bin	203.70133333333	0
bin	203.73466666667	0
bin	203.768	0
bin	203.80133333333	0
bin	203.83466666667	0
bin	203.868	1
bin	203.90133333333	0
bin	203.93466666667	0
bin	203.968	0
bin	204.00133333333	0
bin	204.03466666667	0
bin	204.068	0
bin	204.10133333333	0
bin	204.13466666667	0
bin	204.168	0
bin	204.20133333333	0
bin	204.23466666667	0
bin	204.268	0
bin	204.30133333333	0
bin	204.33466666667	0
bin	204.368	0
statistic RandomGeometricGraph.rgnv[43] 	arrivalPerc:histogram
field count 1
field mean 1
field stddev nan
field sum 1
field sqrsum 1
field min 1
field max 1
attr interpolationmode  none
attr source  count(arrival)
attr title  "arrival perc, histogram"
bin	-INF	0
bin	0	0
bin	1	1
bin	2	0
statistic RandomGeometricGraph.rgnv[44] 	arrivalTime:histogram
field count 1
field mean 42.713
field stddev nan
field sum 42.713
field sqrsum 1824.400369
field min 42.713
field max 42.713
attr interpolationmode  none
attr source  arrivalTime
attr title  "arrival time, histogram"
bin	-INF	0
bin	42.213	0
bin	42.246333333333	0
bin	42.279666666667	0
bin	42.313	0
bin	42.346333333333	0
bin	42.379666666667	0
bin	42.413	0
bin	42.446333333333	0
bin	42.479666666667	0
bin	42.513	0
bin	42.546333333333	0
bin	42.579666666667	0
bin	42.613	0
bin	42.646333333333	0
bin	42.679666666667	0
bin	42.713	1
bin	42.746333333333	0
bin	42.779666666667	0
bin	42.813	0
bin	42.846333333333	0
bin	42.879666666667	0
bin	42.913	0
bin	42.946333333333	0
bin	42.979666666667	0
bin	43.013	0
bin	43.046333333333	0
bin	43.079666666667	0
bin	43.113	0
bin	43.146333333333	0
bin	43.179666666667	0
bin	43.213	0
statistic RandomGeometricGraph.rgnv[44] 	arrivalPerc:histogram
field count 1
field mean 1
field stddev nan
field sum 1
field sqrsum 1
field min 1
field max 1
attr interpolationmode  none
attr source  count(arrival)
attr title  "arrival perc, histogram"
bin	-INF	0
bin	0	0
bin	1	1
bin	2	0
statistic RandomGeometricGraph.rgnv[45] 	arrivalTime:histogram
field count 1
field mean 59.934
field stddev nan
field sum 59.934
field sqrsum 3592.084356
field min 59.934
field max 59.934
attr interpolationmode  none
attr source  arrivalTime
attr title  "arrival time, histogram"
bin	-INF	0
bin	59.434	0
bin	59.467333333333	0
bin	59.500666666667	0
bin	59.534	0
bin	59.567333333333	0
bin	59.600666666667	0
bin	59.634	0
bin	59.667333333333	0
bin	59.700666666667	0
bin	59.734	0
bin	59.767333333333	0
bin	59.800666666667	0
bin	59.834	0
bin	59.867333333333	0
bin	59.900666666667	0
bin	59.934	1
bin	59.967333333333	0
bin	60.000666666667	0
bin	60.034	0
bin	60.067333333333	0
bin	60.100666666667	0
bin	60.134	0
bin	60.167333333333	0
bin	60.200666666667	0
bin	60.234	0
bin	60.267333333333	0
bin	60.300666666667	0
bin	60.334	0
bin	60.367333333333	0
bin	60.400666666667	0
bin	60.434	0
statistic RandomGeometricGraph.rgnv[45] 	arrivalPerc:histogram
field count 1
field mean 1
field stddev nan
field sum 1
field sqrsum 1
field min 1
field max 1
attr interpolationmode  none
attr source  count(arrival)
attr title  "arrival perc, histogram"
bin	-INF	0
bin	0	0
bin	1	1
bin	2	0
statistic RandomGeometricGraph.rgnv[46] 	arrivalTime:histogram
field count 1
field mean 226.079
field stddev nan
field sum 226.079
field sqrsum 51111.714241
field min 226.079
field max 226.079
attr interpolationmode  none
attr source  arrivalTime
attr title  "arrival time, histogram"
bin	-INF	0
bin	225.579	0
bin	225.61233333333	0
bin	225.64566666667	0
bin	225.679	0
bin	225.71233333333	0
bin	225.74566666667	0
bin	225.779	0
bin	225.81233333333	0
bin	225.84566666667	0
bin	225.879	0
bin	225.91233333333	0
bin	225.94566666667	0
bin	225.979	0
bin	226.01233333333	0
bin	226.04566666667	0
bin	226.079	1
bin	226.11233333333	0
bin	226.14566666667	0
bin	226.179	0
bin	226.21233333333	0
bin	226.24566666667	0
bin	226.279	0
bin	226.31233333333	0
bin	226.34566666667	0
bin	226.379	0
bin	226.41233333333	0
bin	226.44566666667	0
bin	226.479	0
bin	226.51233333333	0
bin	226.54566666667	0
bin	226.579	0
statistic RandomGeometricGraph.rgnv[46] 	arrivalPerc:histogram
field count 1
field mean 1
field stddev nan
field sum 1
field sqrsum 1
field min 1
field max 1
attr interpolationmode  none
attr source  count(arrival)
attr title  "arrival perc, histogram"
bin	-INF	0
bin	0	0
bin	1	1
bin	2	0
statistic RandomGeometricGraph.rgnv[47] 	arrivalTime:histogram
field count 1
field mean 134.406
field stddev nan
field sum 134.406
field sqrsum 18064.972836
field min 134.406
field max 134.406
attr interpolationmode  none
attr source  arrivalTime
attr title  "arrival time, histogram"
bin	-INF	0
bin	133.906	0
bin	133.93933333333	0
bin	133.97266666667	0
bin	134.006	0
bin	134.03933333333	0
bin	134.07266666667	0
bin	134.106	0
bin	134.13933333333	0
bin	134.17266666667	0
bin	134.206	0
bin	134.23933333333	0
bin	134.27266666667	0
bin	134.306	0
bin	134.33933333333	0
bin	134.37266666667	0
bin	134.406	1
bin	134.43933333333	0
bin	134.47266666667	0
bin	134.506	0
bin	134.53933333333	0
bin	134.57266666667	0
bin	134.606	0
bin	134.63933333333	0
bin	134.67266666667	0
bin	134.706	0
bin	134.73933333333	0
bin	134.77266666667	0
bin	134.806	0
bin	134.83933333333	0
bin	134.87266666667	0
bin	134.906	0
statistic RandomGeometricGraph.rgnv[47] 	arrivalPerc:histogram
field count 1
field mean 1
field stddev nan
field sum 1
field sqrsum 1
field min 1
field max 1
attr interpolationmode  none
attr source  count(arrival)
attr title  "arrival perc, histogram"
bin	-INF	0
bin	0	0
bin	1	1
bin	2	0
statistic RandomGeometricGraph.rgnv[48] 	arrivalTime:histogram
field count 1
field mean 193.858
field stddev nan
field sum 193.858
field sqrsum 37580.924164
field min 193.858
field max 193.858
attr interpolationmode  none
attr source  arrivalTime
attr title  "arrival time, histogram"
bin	-INF	0
bin	193.358	0
bin	193.39133333333	0
bin	193.42466666667	0
bin	193.458	0
bin	193.49133333333	0
bin	193.52466666667	0
bin	193.558	0
bin	193.59133333333	0
bin	193.62466666667	0
bin	193.658	0
bin	193.69133333333	0
bin	193.72466666667	0
bin	193.758	0
bin	193.79133333333	0
bin	193.82466666667	0
bin	193.858	1
bin	193.89133333333	0
bin	193.92466666667	0
bin	193.958	0
bin	193.99133333333	0
bin	194.02466666667	0
bin	194.058	0
bin	194.09133333333	0
bin	194.12466666667	0
bin	194.158	0
bin	194.19133333333	0
bin	194.22466666667	0
bin	194.258	0
bin	194.29133333333	0
bin	194.32466666667	0
bin	194.358	0
statistic RandomGeometricGraph.rgnv[48] 	arrivalPerc:histogram
field count 1
field mean 1
field stddev nan
field sum 1
field sqrsum 1
field min 1
field max 1
attr interpolationmode  none
attr source  count(arrival)
attr title  "arrival perc, histogram"
bin	-INF	0
bin	0	0
bin	1	1
bin	2	0
statistic RandomGeometricGraph.rgnv[49] 	arrivalTime:histogram
field count 1
field mean 236.089
field stddev nan
field sum 236.089
field sqrsum 55738.015921
field min 236.089
field max 236.089
attr interpolationmode  none
attr source  arrivalTime
attr title  "arrival time, histogram"
bin	-INF	0
bin	235.589	0
bin	235.62233333333	0
bin	235.65566666667	0
bin	235.689	0
bin	235.72233333333	0
bin	235.75566666667	0
bin	235.789	0
bin	235.82233333333	0
bin	235.85566666667	0
bin	235.889	0
bin	235.92233333333	0
bin	235.95566666667	0
bin	235.989	0
bin	236.02233333333	0
bin	236.05566666667	0
bin	236.089	1
bin	236.12233333333	0
bin	236.15566666667	0
bin	236.189	0
bin	236.22233333333	0
bin	236.25566666667	0
bin	236.289	0
bin	236.32233333333	0
bin	236.35566666667	0
bin	236.389	0
bin	236.42233333333	0
bin	236.45566666667	0
bin	236.489	0
bin	236.52233333333	0
bin	236.55566666667	0
bin	236.589	0
statistic RandomGeometricGraph.rgnv[49] 	arrivalPerc:histogram
field count 1
field mean 1
field stddev nan
field sum 1
field sqrsum 1
field min 1
field max 1
attr interpolationmode  none
attr source  count(arrival)
attr title  "arrival perc, histogram"
bin	-INF	0
bin	0	0
bin	1	1
bin	2	0
