version 2
run rgg50-10-20170110-16:27:04-1192
attr configname rgg50
attr datetime 20170110-16:27:04
attr experiment rgg50
attr inifile iniFile/D001/omnetpp_50D001.ini
attr iterationvars ""
attr iterationvars2 $repetition=10
attr measurement ""
attr network blegossipprj.net.randomgeometricgraph.RandomGeometricGraph
attr processid 1192
attr repetition 10
attr replication #10
attr resultdir ../../results/D001/r50D001
attr runnumber 10
attr seedset 10
param RandomGeometricGraph.netSize 50
param RandomGeometricGraph.radius 50
param RandomGeometricGraph.rgnv[*].areaLength 50
param RandomGeometricGraph.rgnv[*].areaWidth 50

statistic RandomGeometricGraph.sc 	arrivalPercentage
field count 50
field mean 1
field stddev 0
field sum 50
field sqrsum 50
field min 1
field max 1
bin	-INF	0
bin	0	0
bin	1	50
bin	2	0
statistic RandomGeometricGraph.sc 	arrivalTime
field count 50
field mean 129.02208
field stddev 68.25765699975
field sum 6451.104
field sqrsum 1060631.135592
field min 0
field max 246.099
bin	-INF	0
bin	-123.0495	0
bin	-106.6429	0
bin	-90.2363	0
bin	-73.8297	0
bin	-57.4231	0
bin	-41.0165	0
bin	-24.6099	0
bin	-8.2033	1
bin	8.2033	1
bin	24.6099	4
bin	41.0165	3
bin	57.4231	4
bin	73.8297	3
bin	90.2363	4
bin	106.6429	4
bin	123.0495	3
bin	139.4561	4
bin	155.8627	3
bin	172.2693	5
bin	188.6759	3
bin	205.0825	3
bin	221.4891	3
bin	237.8957	2
bin	254.3023	0
bin	270.7089	0
bin	287.1155	0
bin	303.5221	0
bin	319.9287	0
bin	336.3353	0
bin	352.7419	0
bin	369.1485	0
statistic RandomGeometricGraph.rgnv[0] 	arrivalTime:histogram
field count 1
field mean 64.934
field stddev nan
field sum 64.934
field sqrsum 4216.424356
field min 64.934
field max 64.934
attr interpolationmode  none
attr source  arrivalTime
attr title  "arrival time, histogram"
bin	-INF	0
bin	64.434	0
bin	64.467333333333	0
bin	64.500666666667	0
bin	64.534	0
bin	64.567333333333	0
bin	64.600666666667	0
bin	64.634	0
bin	64.667333333333	0
bin	64.700666666667	0
bin	64.734	0
bin	64.767333333333	0
bin	64.800666666667	0
bin	64.834	0
bin	64.867333333333	0
bin	64.900666666667	0
bin	64.934	1
bin	64.967333333333	0
bin	65.000666666667	0
bin	65.034	0
bin	65.067333333333	0
bin	65.100666666667	0
bin	65.134	0
bin	65.167333333333	0
bin	65.200666666667	0
bin	65.234	0
bin	65.267333333333	0
bin	65.300666666667	0
bin	65.334	0
bin	65.367333333333	0
bin	65.400666666667	0
bin	65.434	0
statistic RandomGeometricGraph.rgnv[0] 	arrivalPerc:histogram
field count 1
field mean 1
field stddev nan
field sum 1
field sqrsum 1
field min 1
field max 1
attr interpolationmode  none
attr source  count(arrival)
attr title  "arrival perc, histogram"
bin	-INF	0
bin	0	0
bin	1	1
bin	2	0
statistic RandomGeometricGraph.rgnv[1] 	arrivalTime:histogram
field count 1
field mean 37.693
field stddev nan
field sum 37.693
field sqrsum 1420.762249
field min 37.693
field max 37.693
attr interpolationmode  none
attr source  arrivalTime
attr title  "arrival time, histogram"
bin	-INF	0
bin	37.193	0
bin	37.226333333333	0
bin	37.259666666667	0
bin	37.293	0
bin	37.326333333333	0
bin	37.359666666667	0
bin	37.393	0
bin	37.426333333333	0
bin	37.459666666667	0
bin	37.493	0
bin	37.526333333333	0
bin	37.559666666667	0
bin	37.593	0
bin	37.626333333333	0
bin	37.659666666667	0
bin	37.693	1
bin	37.726333333333	0
bin	37.759666666667	0
bin	37.793	0
bin	37.826333333333	0
bin	37.859666666667	0
bin	37.893	0
bin	37.926333333333	0
bin	37.959666666667	0
bin	37.993	0
bin	38.026333333333	0
bin	38.059666666667	0
bin	38.093	0
bin	38.126333333333	0
bin	38.159666666667	0
bin	38.193	0
statistic RandomGeometricGraph.rgnv[1] 	arrivalPerc:histogram
field count 1
field mean 1
field stddev nan
field sum 1
field sqrsum 1
field min 1
field max 1
attr interpolationmode  none
attr source  count(arrival)
attr title  "arrival perc, histogram"
bin	-INF	0
bin	0	0
bin	1	1
bin	2	0
statistic RandomGeometricGraph.rgnv[2] 	arrivalTime:histogram
field count 1
field mean 203.858
field stddev nan
field sum 203.858
field sqrsum 41558.084164
field min 203.858
field max 203.858
attr interpolationmode  none
attr source  arrivalTime
attr title  "arrival time, histogram"
bin	-INF	0
bin	203.358	0
bin	203.39133333333	0
bin	203.42466666667	0
bin	203.458	0
bin	203.49133333333	0
bin	203.52466666667	0
bin	203.558	0
bin	203.59133333333	0
bin	203.62466666667	0
bin	203.658	0
bin	203.69133333333	0
bin	203.72466666667	0
bin	203.758	0
bin	203.79133333333	0
bin	203.82466666667	0
bin	203.858	1
bin	203.89133333333	0
bin	203.92466666667	0
bin	203.958	0
bin	203.99133333333	0
bin	204.02466666667	0
bin	204.058	0
bin	204.09133333333	0
bin	204.12466666667	0
bin	204.158	0
bin	204.19133333333	0
bin	204.22466666667	0
bin	204.258	0
bin	204.29133333333	0
bin	204.32466666667	0
bin	204.358	0
statistic RandomGeometricGraph.rgnv[2] 	arrivalPerc:histogram
field count 1
field mean 1
field stddev nan
field sum 1
field sqrsum 1
field min 1
field max 1
attr interpolationmode  none
attr source  count(arrival)
attr title  "arrival perc, histogram"
bin	-INF	0
bin	0	0
bin	1	1
bin	2	0
statistic RandomGeometricGraph.rgnv[3] 	arrivalTime:histogram
field count 1
field mean 176.637
field stddev nan
field sum 176.637
field sqrsum 31200.629769
field min 176.637
field max 176.637
attr interpolationmode  none
attr source  arrivalTime
attr title  "arrival time, histogram"
bin	-INF	0
bin	176.137	0
bin	176.17033333333	0
bin	176.20366666667	0
bin	176.237	0
bin	176.27033333333	0
bin	176.30366666667	0
bin	176.337	0
bin	176.37033333333	0
bin	176.40366666667	0
bin	176.437	0
bin	176.47033333333	0
bin	176.50366666667	0
bin	176.537	0
bin	176.57033333333	0
bin	176.60366666667	0
bin	176.637	1
bin	176.67033333333	0
bin	176.70366666667	0
bin	176.737	0
bin	176.77033333333	0
bin	176.80366666667	0
bin	176.837	0
bin	176.87033333333	0
bin	176.90366666667	0
bin	176.937	0
bin	176.97033333333	0
bin	177.00366666667	0
bin	177.037	0
bin	177.07033333333	0
bin	177.10366666667	0
bin	177.137	0
statistic RandomGeometricGraph.rgnv[3] 	arrivalPerc:histogram
field count 1
field mean 1
field stddev nan
field sum 1
field sqrsum 1
field min 1
field max 1
attr interpolationmode  none
attr source  count(arrival)
attr title  "arrival perc, histogram"
bin	-INF	0
bin	0	0
bin	1	1
bin	2	0
statistic RandomGeometricGraph.rgnv[4] 	arrivalTime:histogram
field count 1
field mean 122.185
field stddev nan
field sum 122.185
field sqrsum 14929.174225
field min 122.185
field max 122.185
attr interpolationmode  none
attr source  arrivalTime
attr title  "arrival time, histogram"
bin	-INF	0
bin	121.685	0
bin	121.71833333333	0
bin	121.75166666667	0
bin	121.785	0
bin	121.81833333333	0
bin	121.85166666667	0
bin	121.885	0
bin	121.91833333333	0
bin	121.95166666667	0
bin	121.985	0
bin	122.01833333333	0
bin	122.05166666667	0
bin	122.085	0
bin	122.11833333333	0
bin	122.15166666667	0
bin	122.185	1
bin	122.21833333333	0
bin	122.25166666667	0
bin	122.285	0
bin	122.31833333333	0
bin	122.35166666667	0
bin	122.385	0
bin	122.41833333333	0
bin	122.45166666667	0
bin	122.485	0
bin	122.51833333333	0
bin	122.55166666667	0
bin	122.585	0
bin	122.61833333333	0
bin	122.65166666667	0
bin	122.685	0
statistic RandomGeometricGraph.rgnv[4] 	arrivalPerc:histogram
field count 1
field mean 1
field stddev nan
field sum 1
field sqrsum 1
field min 1
field max 1
attr interpolationmode  none
attr source  count(arrival)
attr title  "arrival perc, histogram"
bin	-INF	0
bin	0	0
bin	1	1
bin	2	0
statistic RandomGeometricGraph.rgnv[5] 	arrivalTime:histogram
field count 1
field mean 149.406
field stddev nan
field sum 149.406
field sqrsum 22322.152836
field min 149.406
field max 149.406
attr interpolationmode  none
attr source  arrivalTime
attr title  "arrival time, histogram"
bin	-INF	0
bin	148.906	0
bin	148.93933333333	0
bin	148.97266666667	0
bin	149.006	0
bin	149.03933333333	0
bin	149.07266666667	0
bin	149.106	0
bin	149.13933333333	0
bin	149.17266666667	0
bin	149.206	0
bin	149.23933333333	0
bin	149.27266666667	0
bin	149.306	0
bin	149.33933333333	0
bin	149.37266666667	0
bin	149.406	1
bin	149.43933333333	0
bin	149.47266666667	0
bin	149.506	0
bin	149.53933333333	0
bin	149.57266666667	0
bin	149.606	0
bin	149.63933333333	0
bin	149.67266666667	0
bin	149.706	0
bin	149.73933333333	0
bin	149.77266666667	0
bin	149.806	0
bin	149.83933333333	0
bin	149.87266666667	0
bin	149.906	0
statistic RandomGeometricGraph.rgnv[5] 	arrivalPerc:histogram
field count 1
field mean 1
field stddev nan
field sum 1
field sqrsum 1
field min 1
field max 1
attr interpolationmode  none
attr source  count(arrival)
attr title  "arrival perc, histogram"
bin	-INF	0
bin	0	0
bin	1	1
bin	2	0
statistic RandomGeometricGraph.rgnv[6] 	arrivalTime:histogram
field count 1
field mean 74.944
field stddev nan
field sum 74.944
field sqrsum 5616.603136
field min 74.944
field max 74.944
attr interpolationmode  none
attr source  arrivalTime
attr title  "arrival time, histogram"
bin	-INF	0
bin	74.444	0
bin	74.477333333333	0
bin	74.510666666667	0
bin	74.544	0
bin	74.577333333333	0
bin	74.610666666667	0
bin	74.644	0
bin	74.677333333333	0
bin	74.710666666667	0
bin	74.744	0
bin	74.777333333333	0
bin	74.810666666667	0
bin	74.844	0
bin	74.877333333333	0
bin	74.910666666667	0
bin	74.944	1
bin	74.977333333333	0
bin	75.010666666667	0
bin	75.044	0
bin	75.077333333333	0
bin	75.110666666667	0
bin	75.144	0
bin	75.177333333333	0
bin	75.210666666667	0
bin	75.244	0
bin	75.277333333333	0
bin	75.310666666667	0
bin	75.344	0
bin	75.377333333333	0
bin	75.410666666667	0
bin	75.444	0
statistic RandomGeometricGraph.rgnv[6] 	arrivalPerc:histogram
field count 1
field mean 1
field stddev nan
field sum 1
field sqrsum 1
field min 1
field max 1
attr interpolationmode  none
attr source  count(arrival)
attr title  "arrival perc, histogram"
bin	-INF	0
bin	0	0
bin	1	1
bin	2	0
statistic RandomGeometricGraph.rgnv[7] 	arrivalTime:histogram
field count 1
field mean 117.175
field stddev nan
field sum 117.175
field sqrsum 13729.980625
field min 117.175
field max 117.175
attr interpolationmode  none
attr source  arrivalTime
attr title  "arrival time, histogram"
bin	-INF	0
bin	116.675	0
bin	116.70833333333	0
bin	116.74166666667	0
bin	116.775	0
bin	116.80833333333	0
bin	116.84166666667	0
bin	116.875	0
bin	116.90833333333	0
bin	116.94166666667	0
bin	116.975	0
bin	117.00833333333	0
bin	117.04166666667	0
bin	117.075	0
bin	117.10833333333	0
bin	117.14166666667	0
bin	117.175	1
bin	117.20833333333	0
bin	117.24166666667	0
bin	117.275	0
bin	117.30833333333	0
bin	117.34166666667	0
bin	117.375	0
bin	117.40833333333	0
bin	117.44166666667	0
bin	117.475	0
bin	117.50833333333	0
bin	117.54166666667	0
bin	117.575	0
bin	117.60833333333	0
bin	117.64166666667	0
bin	117.675	0
statistic RandomGeometricGraph.rgnv[7] 	arrivalPerc:histogram
field count 1
field mean 1
field stddev nan
field sum 1
field sqrsum 1
field min 1
field max 1
attr interpolationmode  none
attr source  count(arrival)
attr title  "arrival perc, histogram"
bin	-INF	0
bin	0	0
bin	1	1
bin	2	0
statistic RandomGeometricGraph.rgnv[8] 	arrivalTime:histogram
field count 1
field mean 59.934
field stddev nan
field sum 59.934
field sqrsum 3592.084356
field min 59.934
field max 59.934
attr interpolationmode  none
attr source  arrivalTime
attr title  "arrival time, histogram"
bin	-INF	0
bin	59.434	0
bin	59.467333333333	0
bin	59.500666666667	0
bin	59.534	0
bin	59.567333333333	0
bin	59.600666666667	0
bin	59.634	0
bin	59.667333333333	0
bin	59.700666666667	0
bin	59.734	0
bin	59.767333333333	0
bin	59.800666666667	0
bin	59.834	0
bin	59.867333333333	0
bin	59.900666666667	0
bin	59.934	1
bin	59.967333333333	0
bin	60.000666666667	0
bin	60.034	0
bin	60.067333333333	0
bin	60.100666666667	0
bin	60.134	0
bin	60.167333333333	0
bin	60.200666666667	0
bin	60.234	0
bin	60.267333333333	0
bin	60.300666666667	0
bin	60.334	0
bin	60.367333333333	0
bin	60.400666666667	0
bin	60.434	0
statistic RandomGeometricGraph.rgnv[8] 	arrivalPerc:histogram
field count 1
field mean 1
field stddev nan
field sum 1
field sqrsum 1
field min 1
field max 1
attr interpolationmode  none
attr source  count(arrival)
attr title  "arrival perc, histogram"
bin	-INF	0
bin	0	0
bin	1	1
bin	2	0
statistic RandomGeometricGraph.rgnv[9] 	arrivalTime:histogram
field count 1
field mean 0
field stddev nan
field sum 0
field sqrsum 0
field min 0
field max 0
attr interpolationmode  none
attr source  arrivalTime
attr title  "arrival time, histogram"
bin	-INF	0
bin	-0.5	0
bin	-0.46666666666667	0
bin	-0.43333333333333	0
bin	-0.4	0
bin	-0.36666666666667	0
bin	-0.33333333333333	0
bin	-0.3	0
bin	-0.26666666666667	0
bin	-0.23333333333333	0
bin	-0.2	0
bin	-0.16666666666667	0
bin	-0.13333333333333	0
bin	-0.1	0
bin	-0.066666666666667	0
bin	-0.033333333333333	0
bin	0	1
bin	0.033333333333333	0
bin	0.066666666666667	0
bin	0.1	0
bin	0.13333333333333	0
bin	0.16666666666667	0
bin	0.2	0
bin	0.23333333333333	0
bin	0.26666666666667	0
bin	0.3	0
bin	0.33333333333333	0
bin	0.36666666666667	0
bin	0.4	0
bin	0.43333333333333	0
bin	0.46666666666667	0
bin	0.5	0
statistic RandomGeometricGraph.rgnv[9] 	arrivalPerc:histogram
field count 1
field mean 1
field stddev nan
field sum 1
field sqrsum 1
field min 1
field max 1
attr interpolationmode  none
attr source  count(arrival)
attr title  "arrival perc, histogram"
bin	-INF	0
bin	0	0
bin	1	1
bin	2	0
statistic RandomGeometricGraph.rgnv[10] 	arrivalTime:histogram
field count 1
field mean 213.868
field stddev nan
field sum 213.868
field sqrsum 45739.521424
field min 213.868
field max 213.868
attr interpolationmode  none
attr source  arrivalTime
attr title  "arrival time, histogram"
bin	-INF	0
bin	213.368	0
bin	213.40133333333	0
bin	213.43466666667	0
bin	213.468	0
bin	213.50133333333	0
bin	213.53466666667	0
bin	213.568	0
bin	213.60133333333	0
bin	213.63466666667	0
bin	213.668	0
bin	213.70133333333	0
bin	213.73466666667	0
bin	213.768	0
bin	213.80133333333	0
bin	213.83466666667	0
bin	213.868	1
bin	213.90133333333	0
bin	213.93466666667	0
bin	213.968	0
bin	214.00133333333	0
bin	214.03466666667	0
bin	214.068	0
bin	214.10133333333	0
bin	214.13466666667	0
bin	214.168	0
bin	214.20133333333	0
bin	214.23466666667	0
bin	214.268	0
bin	214.30133333333	0
bin	214.33466666667	0
bin	214.368	0
statistic RandomGeometricGraph.rgnv[10] 	arrivalPerc:histogram
field count 1
field mean 1
field stddev nan
field sum 1
field sqrsum 1
field min 1
field max 1
attr interpolationmode  none
attr source  count(arrival)
attr title  "arrival perc, histogram"
bin	-INF	0
bin	0	0
bin	1	1
bin	2	0
statistic RandomGeometricGraph.rgnv[11] 	arrivalTime:histogram
field count 1
field mean 186.647
field stddev nan
field sum 186.647
field sqrsum 34837.102609
field min 186.647
field max 186.647
attr interpolationmode  none
attr source  arrivalTime
attr title  "arrival time, histogram"
bin	-INF	0
bin	186.147	0
bin	186.18033333333	0
bin	186.21366666667	0
bin	186.247	0
bin	186.28033333333	0
bin	186.31366666667	0
bin	186.347	0
bin	186.38033333333	0
bin	186.41366666667	0
bin	186.447	0
bin	186.48033333333	0
bin	186.51366666667	0
bin	186.547	0
bin	186.58033333333	0
bin	186.61366666667	0
bin	186.647	1
bin	186.68033333333	0
bin	186.71366666667	0
bin	186.747	0
bin	186.78033333333	0
bin	186.81366666667	0
bin	186.847	0
bin	186.88033333333	0
bin	186.91366666667	0
bin	186.947	0
bin	186.98033333333	0
bin	187.01366666667	0
bin	187.047	0
bin	187.08033333333	0
bin	187.11366666667	0
bin	187.147	0
statistic RandomGeometricGraph.rgnv[11] 	arrivalPerc:histogram
field count 1
field mean 1
field stddev nan
field sum 1
field sqrsum 1
field min 1
field max 1
attr interpolationmode  none
attr source  count(arrival)
attr title  "arrival perc, histogram"
bin	-INF	0
bin	0	0
bin	1	1
bin	2	0
statistic RandomGeometricGraph.rgnv[12] 	arrivalTime:histogram
field count 1
field mean 181.637
field stddev nan
field sum 181.637
field sqrsum 32991.999769
field min 181.637
field max 181.637
attr interpolationmode  none
attr source  arrivalTime
attr title  "arrival time, histogram"
bin	-INF	0
bin	181.137	0
bin	181.17033333333	0
bin	181.20366666667	0
bin	181.237	0
bin	181.27033333333	0
bin	181.30366666667	0
bin	181.337	0
bin	181.37033333333	0
bin	181.40366666667	0
bin	181.437	0
bin	181.47033333333	0
bin	181.50366666667	0
bin	181.537	0
bin	181.57033333333	0
bin	181.60366666667	0
bin	181.637	1
bin	181.67033333333	0
bin	181.70366666667	0
bin	181.737	0
bin	181.77033333333	0
bin	181.80366666667	0
bin	181.837	0
bin	181.87033333333	0
bin	181.90366666667	0
bin	181.937	0
bin	181.97033333333	0
bin	182.00366666667	0
bin	182.037	0
bin	182.07033333333	0
bin	182.10366666667	0
bin	182.137	0
statistic RandomGeometricGraph.rgnv[12] 	arrivalPerc:histogram
field count 1
field mean 1
field stddev nan
field sum 1
field sqrsum 1
field min 1
field max 1
attr interpolationmode  none
attr source  count(arrival)
attr title  "arrival perc, histogram"
bin	-INF	0
bin	0	0
bin	1	1
bin	2	0
statistic RandomGeometricGraph.rgnv[13] 	arrivalTime:histogram
field count 1
field mean 223.878
field stddev nan
field sum 223.878
field sqrsum 50121.358884
field min 223.878
field max 223.878
attr interpolationmode  none
attr source  arrivalTime
attr title  "arrival time, histogram"
bin	-INF	0
bin	223.378	0
bin	223.41133333333	0
bin	223.44466666667	0
bin	223.478	0
bin	223.51133333333	0
bin	223.54466666667	0
bin	223.578	0
bin	223.61133333333	0
bin	223.64466666667	0
bin	223.678	0
bin	223.71133333333	0
bin	223.74466666667	0
bin	223.778	0
bin	223.81133333333	0
bin	223.84466666667	0
bin	223.878	1
bin	223.91133333333	0
bin	223.94466666667	0
bin	223.978	0
bin	224.01133333333	0
bin	224.04466666667	0
bin	224.078	0
bin	224.11133333333	0
bin	224.14466666667	0
bin	224.178	0
bin	224.21133333333	0
bin	224.24466666667	0
bin	224.278	0
bin	224.31133333333	0
bin	224.34466666667	0
bin	224.378	0
statistic RandomGeometricGraph.rgnv[13] 	arrivalPerc:histogram
field count 1
field mean 1
field stddev nan
field sum 1
field sqrsum 1
field min 1
field max 1
attr interpolationmode  none
attr source  count(arrival)
attr title  "arrival perc, histogram"
bin	-INF	0
bin	0	0
bin	1	1
bin	2	0
statistic RandomGeometricGraph.rgnv[14] 	arrivalTime:histogram
field count 1
field mean 228.878
field stddev nan
field sum 228.878
field sqrsum 52385.138884
field min 228.878
field max 228.878
attr interpolationmode  none
attr source  arrivalTime
attr title  "arrival time, histogram"
bin	-INF	0
bin	228.378	0
bin	228.41133333333	0
bin	228.44466666667	0
bin	228.478	0
bin	228.51133333333	0
bin	228.54466666667	0
bin	228.578	0
bin	228.61133333333	0
bin	228.64466666667	0
bin	228.678	0
bin	228.71133333333	0
bin	228.74466666667	0
bin	228.778	0
bin	228.81133333333	0
bin	228.84466666667	0
bin	228.878	1
bin	228.91133333333	0
bin	228.94466666667	0
bin	228.978	0
bin	229.01133333333	0
bin	229.04466666667	0
bin	229.078	0
bin	229.11133333333	0
bin	229.14466666667	0
bin	229.178	0
bin	229.21133333333	0
bin	229.24466666667	0
bin	229.278	0
bin	229.31133333333	0
bin	229.34466666667	0
bin	229.378	0
statistic RandomGeometricGraph.rgnv[14] 	arrivalPerc:histogram
field count 1
field mean 1
field stddev nan
field sum 1
field sqrsum 1
field min 1
field max 1
attr interpolationmode  none
attr source  count(arrival)
attr title  "arrival perc, histogram"
bin	-INF	0
bin	0	0
bin	1	1
bin	2	0
statistic RandomGeometricGraph.rgnv[15] 	arrivalTime:histogram
field count 1
field mean 112.175
field stddev nan
field sum 112.175
field sqrsum 12583.230625
field min 112.175
field max 112.175
attr interpolationmode  none
attr source  arrivalTime
attr title  "arrival time, histogram"
bin	-INF	0
bin	111.675	0
bin	111.70833333333	0
bin	111.74166666667	0
bin	111.775	0
bin	111.80833333333	0
bin	111.84166666667	0
bin	111.875	0
bin	111.90833333333	0
bin	111.94166666667	0
bin	111.975	0
bin	112.00833333333	0
bin	112.04166666667	0
bin	112.075	0
bin	112.10833333333	0
bin	112.14166666667	0
bin	112.175	1
bin	112.20833333333	0
bin	112.24166666667	0
bin	112.275	0
bin	112.30833333333	0
bin	112.34166666667	0
bin	112.375	0
bin	112.40833333333	0
bin	112.44166666667	0
bin	112.475	0
bin	112.50833333333	0
bin	112.54166666667	0
bin	112.575	0
bin	112.60833333333	0
bin	112.64166666667	0
bin	112.675	0
statistic RandomGeometricGraph.rgnv[15] 	arrivalPerc:histogram
field count 1
field mean 1
field stddev nan
field sum 1
field sqrsum 1
field min 1
field max 1
attr interpolationmode  none
attr source  count(arrival)
attr title  "arrival perc, histogram"
bin	-INF	0
bin	0	0
bin	1	1
bin	2	0
statistic RandomGeometricGraph.rgnv[16] 	arrivalTime:histogram
field count 1
field mean 191.647
field stddev nan
field sum 191.647
field sqrsum 36728.572609
field min 191.647
field max 191.647
attr interpolationmode  none
attr source  arrivalTime
attr title  "arrival time, histogram"
bin	-INF	0
bin	191.147	0
bin	191.18033333333	0
bin	191.21366666667	0
bin	191.247	0
bin	191.28033333333	0
bin	191.31366666667	0
bin	191.347	0
bin	191.38033333333	0
bin	191.41366666667	0
bin	191.447	0
bin	191.48033333333	0
bin	191.51366666667	0
bin	191.547	0
bin	191.58033333333	0
bin	191.61366666667	0
bin	191.647	1
bin	191.68033333333	0
bin	191.71366666667	0
bin	191.747	0
bin	191.78033333333	0
bin	191.81366666667	0
bin	191.847	0
bin	191.88033333333	0
bin	191.91366666667	0
bin	191.947	0
bin	191.98033333333	0
bin	192.01366666667	0
bin	192.047	0
bin	192.08033333333	0
bin	192.11366666667	0
bin	192.147	0
statistic RandomGeometricGraph.rgnv[16] 	arrivalPerc:histogram
field count 1
field mean 1
field stddev nan
field sum 1
field sqrsum 1
field min 1
field max 1
attr interpolationmode  none
attr source  count(arrival)
attr title  "arrival perc, histogram"
bin	-INF	0
bin	0	0
bin	1	1
bin	2	0
statistic RandomGeometricGraph.rgnv[17] 	arrivalTime:histogram
field count 1
field mean 181.637
field stddev nan
field sum 181.637
field sqrsum 32991.999769
field min 181.637
field max 181.637
attr interpolationmode  none
attr source  arrivalTime
attr title  "arrival time, histogram"
bin	-INF	0
bin	181.137	0
bin	181.17033333333	0
bin	181.20366666667	0
bin	181.237	0
bin	181.27033333333	0
bin	181.30366666667	0
bin	181.337	0
bin	181.37033333333	0
bin	181.40366666667	0
bin	181.437	0
bin	181.47033333333	0
bin	181.50366666667	0
bin	181.537	0
bin	181.57033333333	0
bin	181.60366666667	0
bin	181.637	1
bin	181.67033333333	0
bin	181.70366666667	0
bin	181.737	0
bin	181.77033333333	0
bin	181.80366666667	0
bin	181.837	0
bin	181.87033333333	0
bin	181.90366666667	0
bin	181.937	0
bin	181.97033333333	0
bin	182.00366666667	0
bin	182.037	0
bin	182.07033333333	0
bin	182.10366666667	0
bin	182.137	0
statistic RandomGeometricGraph.rgnv[17] 	arrivalPerc:histogram
field count 1
field mean 1
field stddev nan
field sum 1
field sqrsum 1
field min 1
field max 1
attr interpolationmode  none
attr source  count(arrival)
attr title  "arrival perc, histogram"
bin	-INF	0
bin	0	0
bin	1	1
bin	2	0
statistic RandomGeometricGraph.rgnv[18] 	arrivalTime:histogram
field count 1
field mean 13.231
field stddev nan
field sum 13.231
field sqrsum 175.059361
field min 13.231
field max 13.231
attr interpolationmode  none
attr source  arrivalTime
attr title  "arrival time, histogram"
bin	-INF	0
bin	12.731	0
bin	12.764333333333	0
bin	12.797666666667	0
bin	12.831	0
bin	12.864333333333	0
bin	12.897666666667	0
bin	12.931	0
bin	12.964333333333	0
bin	12.997666666667	0
bin	13.031	0
bin	13.064333333333	0
bin	13.097666666667	0
bin	13.131	0
bin	13.164333333333	0
bin	13.197666666667	0
bin	13.231	1
bin	13.264333333333	0
bin	13.297666666667	0
bin	13.331	0
bin	13.364333333333	0
bin	13.397666666667	0
bin	13.431	0
bin	13.464333333333	0
bin	13.497666666667	0
bin	13.531	0
bin	13.564333333333	0
bin	13.597666666667	0
bin	13.631	0
bin	13.664333333333	0
bin	13.697666666667	0
bin	13.731	0
statistic RandomGeometricGraph.rgnv[18] 	arrivalPerc:histogram
field count 1
field mean 1
field stddev nan
field sum 1
field sqrsum 1
field min 1
field max 1
attr interpolationmode  none
attr source  count(arrival)
attr title  "arrival perc, histogram"
bin	-INF	0
bin	0	0
bin	1	1
bin	2	0
statistic RandomGeometricGraph.rgnv[19] 	arrivalTime:histogram
field count 1
field mean 246.099
field stddev nan
field sum 246.099
field sqrsum 60564.717801
field min 246.099
field max 246.099
attr interpolationmode  none
attr source  arrivalTime
attr title  "arrival time, histogram"
bin	-INF	0
bin	245.599	0
bin	245.63233333333	0
bin	245.66566666667	0
bin	245.699	0
bin	245.73233333333	0
bin	245.76566666667	0
bin	245.799	0
bin	245.83233333333	0
bin	245.86566666667	0
bin	245.899	0
bin	245.93233333333	0
bin	245.96566666667	0
bin	245.999	0
bin	246.03233333333	0
bin	246.06566666667	0
bin	246.099	1
bin	246.13233333333	0
bin	246.16566666667	0
bin	246.199	0
bin	246.23233333333	0
bin	246.26566666667	0
bin	246.299	0
bin	246.33233333333	0
bin	246.36566666667	0
bin	246.399	0
bin	246.43233333333	0
bin	246.46566666667	0
bin	246.499	0
bin	246.53233333333	0
bin	246.56566666667	0
bin	246.599	0
statistic RandomGeometricGraph.rgnv[19] 	arrivalPerc:histogram
field count 1
field mean 1
field stddev nan
field sum 1
field sqrsum 1
field min 1
field max 1
attr interpolationmode  none
attr source  count(arrival)
attr title  "arrival perc, histogram"
bin	-INF	0
bin	0	0
bin	1	1
bin	2	0
statistic RandomGeometricGraph.rgnv[20] 	arrivalTime:histogram
field count 1
field mean 241.089
field stddev nan
field sum 241.089
field sqrsum 58123.905921
field min 241.089
field max 241.089
attr interpolationmode  none
attr source  arrivalTime
attr title  "arrival time, histogram"
bin	-INF	0
bin	240.589	0
bin	240.62233333333	0
bin	240.65566666667	0
bin	240.689	0
bin	240.72233333333	0
bin	240.75566666667	0
bin	240.789	0
bin	240.82233333333	0
bin	240.85566666667	0
bin	240.889	0
bin	240.92233333333	0
bin	240.95566666667	0
bin	240.989	0
bin	241.02233333333	0
bin	241.05566666667	0
bin	241.089	1
bin	241.12233333333	0
bin	241.15566666667	0
bin	241.189	0
bin	241.22233333333	0
bin	241.25566666667	0
bin	241.289	0
bin	241.32233333333	0
bin	241.35566666667	0
bin	241.389	0
bin	241.42233333333	0
bin	241.45566666667	0
bin	241.489	0
bin	241.52233333333	0
bin	241.55566666667	0
bin	241.589	0
statistic RandomGeometricGraph.rgnv[20] 	arrivalPerc:histogram
field count 1
field mean 1
field stddev nan
field sum 1
field sqrsum 1
field min 1
field max 1
attr interpolationmode  none
attr source  count(arrival)
attr title  "arrival perc, histogram"
bin	-INF	0
bin	0	0
bin	1	1
bin	2	0
statistic RandomGeometricGraph.rgnv[21] 	arrivalTime:histogram
field count 1
field mean 139.396
field stddev nan
field sum 139.396
field sqrsum 19431.244816
field min 139.396
field max 139.396
attr interpolationmode  none
attr source  arrivalTime
attr title  "arrival time, histogram"
bin	-INF	0
bin	138.896	0
bin	138.92933333333	0
bin	138.96266666667	0
bin	138.996	0
bin	139.02933333333	0
bin	139.06266666667	0
bin	139.096	0
bin	139.12933333333	0
bin	139.16266666667	0
bin	139.196	0
bin	139.22933333333	0
bin	139.26266666667	0
bin	139.296	0
bin	139.32933333333	0
bin	139.36266666667	0
bin	139.396	1
bin	139.42933333333	0
bin	139.46266666667	0
bin	139.496	0
bin	139.52933333333	0
bin	139.56266666667	0
bin	139.596	0
bin	139.62933333333	0
bin	139.66266666667	0
bin	139.696	0
bin	139.72933333333	0
bin	139.76266666667	0
bin	139.796	0
bin	139.82933333333	0
bin	139.86266666667	0
bin	139.896	0
statistic RandomGeometricGraph.rgnv[21] 	arrivalPerc:histogram
field count 1
field mean 1
field stddev nan
field sum 1
field sqrsum 1
field min 1
field max 1
attr interpolationmode  none
attr source  count(arrival)
attr title  "arrival perc, histogram"
bin	-INF	0
bin	0	0
bin	1	1
bin	2	0
statistic RandomGeometricGraph.rgnv[22] 	arrivalTime:histogram
field count 1
field mean 107.175
field stddev nan
field sum 107.175
field sqrsum 11486.480625
field min 107.175
field max 107.175
attr interpolationmode  none
attr source  arrivalTime
attr title  "arrival time, histogram"
bin	-INF	0
bin	106.675	0
bin	106.70833333333	0
bin	106.74166666667	0
bin	106.775	0
bin	106.80833333333	0
bin	106.84166666667	0
bin	106.875	0
bin	106.90833333333	0
bin	106.94166666667	0
bin	106.975	0
bin	107.00833333333	0
bin	107.04166666667	0
bin	107.075	0
bin	107.10833333333	0
bin	107.14166666667	0
bin	107.175	1
bin	107.20833333333	0
bin	107.24166666667	0
bin	107.275	0
bin	107.30833333333	0
bin	107.34166666667	0
bin	107.375	0
bin	107.40833333333	0
bin	107.44166666667	0
bin	107.475	0
bin	107.50833333333	0
bin	107.54166666667	0
bin	107.575	0
bin	107.60833333333	0
bin	107.64166666667	0
bin	107.675	0
statistic RandomGeometricGraph.rgnv[22] 	arrivalPerc:histogram
field count 1
field mean 1
field stddev nan
field sum 1
field sqrsum 1
field min 1
field max 1
attr interpolationmode  none
attr source  count(arrival)
attr title  "arrival perc, histogram"
bin	-INF	0
bin	0	0
bin	1	1
bin	2	0
statistic RandomGeometricGraph.rgnv[23] 	arrivalTime:histogram
field count 1
field mean 166.627
field stddev nan
field sum 166.627
field sqrsum 27764.557129
field min 166.627
field max 166.627
attr interpolationmode  none
attr source  arrivalTime
attr title  "arrival time, histogram"
bin	-INF	0
bin	166.127	0
bin	166.16033333333	0
bin	166.19366666667	0
bin	166.227	0
bin	166.26033333333	0
bin	166.29366666667	0
bin	166.327	0
bin	166.36033333333	0
bin	166.39366666667	0
bin	166.427	0
bin	166.46033333333	0
bin	166.49366666667	0
bin	166.527	0
bin	166.56033333333	0
bin	166.59366666667	0
bin	166.627	1
bin	166.66033333333	0
bin	166.69366666667	0
bin	166.727	0
bin	166.76033333333	0
bin	166.79366666667	0
bin	166.827	0
bin	166.86033333333	0
bin	166.89366666667	0
bin	166.927	0
bin	166.96033333333	0
bin	166.99366666667	0
bin	167.027	0
bin	167.06033333333	0
bin	167.09366666667	0
bin	167.127	0
statistic RandomGeometricGraph.rgnv[23] 	arrivalPerc:histogram
field count 1
field mean 1
field stddev nan
field sum 1
field sqrsum 1
field min 1
field max 1
attr interpolationmode  none
attr source  count(arrival)
attr title  "arrival perc, histogram"
bin	-INF	0
bin	0	0
bin	1	1
bin	2	0
statistic RandomGeometricGraph.rgnv[24] 	arrivalTime:histogram
field count 1
field mean 154.416
field stddev nan
field sum 154.416
field sqrsum 23844.301056
field min 154.416
field max 154.416
attr interpolationmode  none
attr source  arrivalTime
attr title  "arrival time, histogram"
bin	-INF	0
bin	153.916	0
bin	153.94933333333	0
bin	153.98266666667	0
bin	154.016	0
bin	154.04933333333	0
bin	154.08266666667	0
bin	154.116	0
bin	154.14933333333	0
bin	154.18266666667	0
bin	154.216	0
bin	154.24933333333	0
bin	154.28266666667	0
bin	154.316	0
bin	154.34933333333	0
bin	154.38266666667	0
bin	154.416	1
bin	154.44933333333	0
bin	154.48266666667	0
bin	154.516	0
bin	154.54933333333	0
bin	154.58266666667	0
bin	154.616	0
bin	154.64933333333	0
bin	154.68266666667	0
bin	154.716	0
bin	154.74933333333	0
bin	154.78266666667	0
bin	154.816	0
bin	154.84933333333	0
bin	154.88266666667	0
bin	154.916	0
statistic RandomGeometricGraph.rgnv[24] 	arrivalPerc:histogram
field count 1
field mean 1
field stddev nan
field sum 1
field sqrsum 1
field min 1
field max 1
attr interpolationmode  none
attr source  count(arrival)
attr title  "arrival perc, histogram"
bin	-INF	0
bin	0	0
bin	1	1
bin	2	0
statistic RandomGeometricGraph.rgnv[25] 	arrivalTime:histogram
field count 1
field mean 97.165
field stddev nan
field sum 97.165
field sqrsum 9441.037225
field min 97.165
field max 97.165
attr interpolationmode  none
attr source  arrivalTime
attr title  "arrival time, histogram"
bin	-INF	0
bin	96.665	0
bin	96.698333333333	0
bin	96.731666666667	0
bin	96.765	0
bin	96.798333333333	0
bin	96.831666666667	0
bin	96.865	0
bin	96.898333333333	0
bin	96.931666666667	0
bin	96.965	0
bin	96.998333333333	0
bin	97.031666666667	0
bin	97.065	0
bin	97.098333333333	0
bin	97.131666666667	0
bin	97.165	1
bin	97.198333333333	0
bin	97.231666666667	0
bin	97.265	0
bin	97.298333333333	0
bin	97.331666666667	0
bin	97.365	0
bin	97.398333333333	0
bin	97.431666666667	0
bin	97.465	0
bin	97.498333333333	0
bin	97.531666666667	0
bin	97.565	0
bin	97.598333333333	0
bin	97.631666666667	0
bin	97.665	0
statistic RandomGeometricGraph.rgnv[25] 	arrivalPerc:histogram
field count 1
field mean 1
field stddev nan
field sum 1
field sqrsum 1
field min 1
field max 1
attr interpolationmode  none
attr source  count(arrival)
attr title  "arrival perc, histogram"
bin	-INF	0
bin	0	0
bin	1	1
bin	2	0
statistic RandomGeometricGraph.rgnv[26] 	arrivalTime:histogram
field count 1
field mean 144.406
field stddev nan
field sum 144.406
field sqrsum 20853.092836
field min 144.406
field max 144.406
attr interpolationmode  none
attr source  arrivalTime
attr title  "arrival time, histogram"
bin	-INF	0
bin	143.906	0
bin	143.93933333333	0
bin	143.97266666667	0
bin	144.006	0
bin	144.03933333333	0
bin	144.07266666667	0
bin	144.106	0
bin	144.13933333333	0
bin	144.17266666667	0
bin	144.206	0
bin	144.23933333333	0
bin	144.27266666667	0
bin	144.306	0
bin	144.33933333333	0
bin	144.37266666667	0
bin	144.406	1
bin	144.43933333333	0
bin	144.47266666667	0
bin	144.506	0
bin	144.53933333333	0
bin	144.57266666667	0
bin	144.606	0
bin	144.63933333333	0
bin	144.67266666667	0
bin	144.706	0
bin	144.73933333333	0
bin	144.77266666667	0
bin	144.806	0
bin	144.83933333333	0
bin	144.87266666667	0
bin	144.906	0
statistic RandomGeometricGraph.rgnv[26] 	arrivalPerc:histogram
field count 1
field mean 1
field stddev nan
field sum 1
field sqrsum 1
field min 1
field max 1
attr interpolationmode  none
attr source  count(arrival)
attr title  "arrival perc, histogram"
bin	-INF	0
bin	0	0
bin	1	1
bin	2	0
statistic RandomGeometricGraph.rgnv[27] 	arrivalTime:histogram
field count 1
field mean 129.386
field stddev nan
field sum 129.386
field sqrsum 16740.736996
field min 129.386
field max 129.386
attr interpolationmode  none
attr source  arrivalTime
attr title  "arrival time, histogram"
bin	-INF	0
bin	128.886	0
bin	128.91933333333	0
bin	128.95266666667	0
bin	128.986	0
bin	129.01933333333	0
bin	129.05266666667	0
bin	129.086	0
bin	129.11933333333	0
bin	129.15266666667	0
bin	129.186	0
bin	129.21933333333	0
bin	129.25266666667	0
bin	129.286	0
bin	129.31933333333	0
bin	129.35266666667	0
bin	129.386	1
bin	129.41933333333	0
bin	129.45266666667	0
bin	129.486	0
bin	129.51933333333	0
bin	129.55266666667	0
bin	129.586	0
bin	129.61933333333	0
bin	129.65266666667	0
bin	129.686	0
bin	129.71933333333	0
bin	129.75266666667	0
bin	129.786	0
bin	129.81933333333	0
bin	129.85266666667	0
bin	129.886	0
statistic RandomGeometricGraph.rgnv[27] 	arrivalPerc:histogram
field count 1
field mean 1
field stddev nan
field sum 1
field sqrsum 1
field min 1
field max 1
attr interpolationmode  none
attr source  count(arrival)
attr title  "arrival perc, histogram"
bin	-INF	0
bin	0	0
bin	1	1
bin	2	0
statistic RandomGeometricGraph.rgnv[28] 	arrivalTime:histogram
field count 1
field mean 64.934
field stddev nan
field sum 64.934
field sqrsum 4216.424356
field min 64.934
field max 64.934
attr interpolationmode  none
attr source  arrivalTime
attr title  "arrival time, histogram"
bin	-INF	0
bin	64.434	0
bin	64.467333333333	0
bin	64.500666666667	0
bin	64.534	0
bin	64.567333333333	0
bin	64.600666666667	0
bin	64.634	0
bin	64.667333333333	0
bin	64.700666666667	0
bin	64.734	0
bin	64.767333333333	0
bin	64.800666666667	0
bin	64.834	0
bin	64.867333333333	0
bin	64.900666666667	0
bin	64.934	1
bin	64.967333333333	0
bin	65.000666666667	0
bin	65.034	0
bin	65.067333333333	0
bin	65.100666666667	0
bin	65.134	0
bin	65.167333333333	0
bin	65.200666666667	0
bin	65.234	0
bin	65.267333333333	0
bin	65.300666666667	0
bin	65.334	0
bin	65.367333333333	0
bin	65.400666666667	0
bin	65.434	0
statistic RandomGeometricGraph.rgnv[28] 	arrivalPerc:histogram
field count 1
field mean 1
field stddev nan
field sum 1
field sqrsum 1
field min 1
field max 1
attr interpolationmode  none
attr source  count(arrival)
attr title  "arrival perc, histogram"
bin	-INF	0
bin	0	0
bin	1	1
bin	2	0
statistic RandomGeometricGraph.rgnv[29] 	arrivalTime:histogram
field count 1
field mean 84.954
field stddev nan
field sum 84.954
field sqrsum 7217.182116
field min 84.954
field max 84.954
attr interpolationmode  none
attr source  arrivalTime
attr title  "arrival time, histogram"
bin	-INF	0
bin	84.454	0
bin	84.487333333333	0
bin	84.520666666667	0
bin	84.554	0
bin	84.587333333333	0
bin	84.620666666667	0
bin	84.654	0
bin	84.687333333333	0
bin	84.720666666667	0
bin	84.754	0
bin	84.787333333333	0
bin	84.820666666667	0
bin	84.854	0
bin	84.887333333333	0
bin	84.920666666667	0
bin	84.954	1
bin	84.987333333333	0
bin	85.020666666667	0
bin	85.054	0
bin	85.087333333333	0
bin	85.120666666667	0
bin	85.154	0
bin	85.187333333333	0
bin	85.220666666667	0
bin	85.254	0
bin	85.287333333333	0
bin	85.320666666667	0
bin	85.354	0
bin	85.387333333333	0
bin	85.420666666667	0
bin	85.454	0
statistic RandomGeometricGraph.rgnv[29] 	arrivalPerc:histogram
field count 1
field mean 1
field stddev nan
field sum 1
field sqrsum 1
field min 1
field max 1
attr interpolationmode  none
attr source  count(arrival)
attr title  "arrival perc, histogram"
bin	-INF	0
bin	0	0
bin	1	1
bin	2	0
statistic RandomGeometricGraph.rgnv[30] 	arrivalTime:histogram
field count 1
field mean 233.878
field stddev nan
field sum 233.878
field sqrsum 54698.918884
field min 233.878
field max 233.878
attr interpolationmode  none
attr source  arrivalTime
attr title  "arrival time, histogram"
bin	-INF	0
bin	233.378	0
bin	233.41133333333	0
bin	233.44466666667	0
bin	233.478	0
bin	233.51133333333	0
bin	233.54466666667	0
bin	233.578	0
bin	233.61133333333	0
bin	233.64466666667	0
bin	233.678	0
bin	233.71133333333	0
bin	233.74466666667	0
bin	233.778	0
bin	233.81133333333	0
bin	233.84466666667	0
bin	233.878	1
bin	233.91133333333	0
bin	233.94466666667	0
bin	233.978	0
bin	234.01133333333	0
bin	234.04466666667	0
bin	234.078	0
bin	234.11133333333	0
bin	234.14466666667	0
bin	234.178	0
bin	234.21133333333	0
bin	234.24466666667	0
bin	234.278	0
bin	234.31133333333	0
bin	234.34466666667	0
bin	234.378	0
statistic RandomGeometricGraph.rgnv[30] 	arrivalPerc:histogram
field count 1
field mean 1
field stddev nan
field sum 1
field sqrsum 1
field min 1
field max 1
attr interpolationmode  none
attr source  count(arrival)
attr title  "arrival perc, histogram"
bin	-INF	0
bin	0	0
bin	1	1
bin	2	0
statistic RandomGeometricGraph.rgnv[31] 	arrivalTime:histogram
field count 1
field mean 159.416
field stddev nan
field sum 159.416
field sqrsum 25413.461056
field min 159.416
field max 159.416
attr interpolationmode  none
attr source  arrivalTime
attr title  "arrival time, histogram"
bin	-INF	0
bin	158.916	0
bin	158.94933333333	0
bin	158.98266666667	0
bin	159.016	0
bin	159.04933333333	0
bin	159.08266666667	0
bin	159.116	0
bin	159.14933333333	0
bin	159.18266666667	0
bin	159.216	0
bin	159.24933333333	0
bin	159.28266666667	0
bin	159.316	0
bin	159.34933333333	0
bin	159.38266666667	0
bin	159.416	1
bin	159.44933333333	0
bin	159.48266666667	0
bin	159.516	0
bin	159.54933333333	0
bin	159.58266666667	0
bin	159.616	0
bin	159.64933333333	0
bin	159.68266666667	0
bin	159.716	0
bin	159.74933333333	0
bin	159.78266666667	0
bin	159.816	0
bin	159.84933333333	0
bin	159.88266666667	0
bin	159.916	0
statistic RandomGeometricGraph.rgnv[31] 	arrivalPerc:histogram
field count 1
field mean 1
field stddev nan
field sum 1
field sqrsum 1
field min 1
field max 1
attr interpolationmode  none
attr source  count(arrival)
attr title  "arrival perc, histogram"
bin	-INF	0
bin	0	0
bin	1	1
bin	2	0
statistic RandomGeometricGraph.rgnv[32] 	arrivalTime:histogram
field count 1
field mean 218.868
field stddev nan
field sum 218.868
field sqrsum 47903.201424
field min 218.868
field max 218.868
attr interpolationmode  none
attr source  arrivalTime
attr title  "arrival time, histogram"
bin	-INF	0
bin	218.368	0
bin	218.40133333333	0
bin	218.43466666667	0
bin	218.468	0
bin	218.50133333333	0
bin	218.53466666667	0
bin	218.568	0
bin	218.60133333333	0
bin	218.63466666667	0
bin	218.668	0
bin	218.70133333333	0
bin	218.73466666667	0
bin	218.768	0
bin	218.80133333333	0
bin	218.83466666667	0
bin	218.868	1
bin	218.90133333333	0
bin	218.93466666667	0
bin	218.968	0
bin	219.00133333333	0
bin	219.03466666667	0
bin	219.068	0
bin	219.10133333333	0
bin	219.13466666667	0
bin	219.168	0
bin	219.20133333333	0
bin	219.23466666667	0
bin	219.268	0
bin	219.30133333333	0
bin	219.33466666667	0
bin	219.368	0
statistic RandomGeometricGraph.rgnv[32] 	arrivalPerc:histogram
field count 1
field mean 1
field stddev nan
field sum 1
field sqrsum 1
field min 1
field max 1
attr interpolationmode  none
attr source  count(arrival)
attr title  "arrival perc, histogram"
bin	-INF	0
bin	0	0
bin	1	1
bin	2	0
statistic RandomGeometricGraph.rgnv[33] 	arrivalTime:histogram
field count 1
field mean 79.944
field stddev nan
field sum 79.944
field sqrsum 6391.043136
field min 79.944
field max 79.944
attr interpolationmode  none
attr source  arrivalTime
attr title  "arrival time, histogram"
bin	-INF	0
bin	79.444	0
bin	79.477333333333	0
bin	79.510666666667	0
bin	79.544	0
bin	79.577333333333	0
bin	79.610666666667	0
bin	79.644	0
bin	79.677333333333	0
bin	79.710666666667	0
bin	79.744	0
bin	79.777333333333	0
bin	79.810666666667	0
bin	79.844	0
bin	79.877333333333	0
bin	79.910666666667	0
bin	79.944	1
bin	79.977333333333	0
bin	80.010666666667	0
bin	80.044	0
bin	80.077333333333	0
bin	80.110666666667	0
bin	80.144	0
bin	80.177333333333	0
bin	80.210666666667	0
bin	80.244	0
bin	80.277333333333	0
bin	80.310666666667	0
bin	80.344	0
bin	80.377333333333	0
bin	80.410666666667	0
bin	80.444	0
statistic RandomGeometricGraph.rgnv[33] 	arrivalPerc:histogram
field count 1
field mean 1
field stddev nan
field sum 1
field sqrsum 1
field min 1
field max 1
attr interpolationmode  none
attr source  count(arrival)
attr title  "arrival perc, histogram"
bin	-INF	0
bin	0	0
bin	1	1
bin	2	0
statistic RandomGeometricGraph.rgnv[34] 	arrivalTime:histogram
field count 1
field mean 102.165
field stddev nan
field sum 102.165
field sqrsum 10437.687225
field min 102.165
field max 102.165
attr interpolationmode  none
attr source  arrivalTime
attr title  "arrival time, histogram"
bin	-INF	0
bin	101.665	0
bin	101.69833333333	0
bin	101.73166666667	0
bin	101.765	0
bin	101.79833333333	0
bin	101.83166666667	0
bin	101.865	0
bin	101.89833333333	0
bin	101.93166666667	0
bin	101.965	0
bin	101.99833333333	0
bin	102.03166666667	0
bin	102.065	0
bin	102.09833333333	0
bin	102.13166666667	0
bin	102.165	1
bin	102.19833333333	0
bin	102.23166666667	0
bin	102.265	0
bin	102.29833333333	0
bin	102.33166666667	0
bin	102.365	0
bin	102.39833333333	0
bin	102.43166666667	0
bin	102.465	0
bin	102.49833333333	0
bin	102.53166666667	0
bin	102.565	0
bin	102.59833333333	0
bin	102.63166666667	0
bin	102.665	0
statistic RandomGeometricGraph.rgnv[34] 	arrivalPerc:histogram
field count 1
field mean 1
field stddev nan
field sum 1
field sqrsum 1
field min 1
field max 1
attr interpolationmode  none
attr source  count(arrival)
attr title  "arrival perc, histogram"
bin	-INF	0
bin	0	0
bin	1	1
bin	2	0
statistic RandomGeometricGraph.rgnv[35] 	arrivalTime:histogram
field count 1
field mean 186.647
field stddev nan
field sum 186.647
field sqrsum 34837.102609
field min 186.647
field max 186.647
attr interpolationmode  none
attr source  arrivalTime
attr title  "arrival time, histogram"
bin	-INF	0
bin	186.147	0
bin	186.18033333333	0
bin	186.21366666667	0
bin	186.247	0
bin	186.28033333333	0
bin	186.31366666667	0
bin	186.347	0
bin	186.38033333333	0
bin	186.41366666667	0
bin	186.447	0
bin	186.48033333333	0
bin	186.51366666667	0
bin	186.547	0
bin	186.58033333333	0
bin	186.61366666667	0
bin	186.647	1
bin	186.68033333333	0
bin	186.71366666667	0
bin	186.747	0
bin	186.78033333333	0
bin	186.81366666667	0
bin	186.847	0
bin	186.88033333333	0
bin	186.91366666667	0
bin	186.947	0
bin	186.98033333333	0
bin	187.01366666667	0
bin	187.047	0
bin	187.08033333333	0
bin	187.11366666667	0
bin	187.147	0
statistic RandomGeometricGraph.rgnv[35] 	arrivalPerc:histogram
field count 1
field mean 1
field stddev nan
field sum 1
field sqrsum 1
field min 1
field max 1
attr interpolationmode  none
attr source  count(arrival)
attr title  "arrival perc, histogram"
bin	-INF	0
bin	0	0
bin	1	1
bin	2	0
statistic RandomGeometricGraph.rgnv[36] 	arrivalTime:histogram
field count 1
field mean 54.924
field stddev nan
field sum 54.924
field sqrsum 3016.645776
field min 54.924
field max 54.924
attr interpolationmode  none
attr source  arrivalTime
attr title  "arrival time, histogram"
bin	-INF	0
bin	54.424	0
bin	54.457333333333	0
bin	54.490666666667	0
bin	54.524	0
bin	54.557333333333	0
bin	54.590666666667	0
bin	54.624	0
bin	54.657333333333	0
bin	54.690666666667	0
bin	54.724	0
bin	54.757333333333	0
bin	54.790666666667	0
bin	54.824	0
bin	54.857333333333	0
bin	54.890666666667	0
bin	54.924	1
bin	54.957333333333	0
bin	54.990666666667	0
bin	55.024	0
bin	55.057333333333	0
bin	55.090666666667	0
bin	55.124	0
bin	55.157333333333	0
bin	55.190666666667	0
bin	55.224	0
bin	55.257333333333	0
bin	55.290666666667	0
bin	55.324	0
bin	55.357333333333	0
bin	55.390666666667	0
bin	55.424	0
statistic RandomGeometricGraph.rgnv[36] 	arrivalPerc:histogram
field count 1
field mean 1
field stddev nan
field sum 1
field sqrsum 1
field min 1
field max 1
attr interpolationmode  none
attr source  count(arrival)
attr title  "arrival perc, histogram"
bin	-INF	0
bin	0	0
bin	1	1
bin	2	0
statistic RandomGeometricGraph.rgnv[37] 	arrivalTime:histogram
field count 1
field mean 149.406
field stddev nan
field sum 149.406
field sqrsum 22322.152836
field min 149.406
field max 149.406
attr interpolationmode  none
attr source  arrivalTime
attr title  "arrival time, histogram"
bin	-INF	0
bin	148.906	0
bin	148.93933333333	0
bin	148.97266666667	0
bin	149.006	0
bin	149.03933333333	0
bin	149.07266666667	0
bin	149.106	0
bin	149.13933333333	0
bin	149.17266666667	0
bin	149.206	0
bin	149.23933333333	0
bin	149.27266666667	0
bin	149.306	0
bin	149.33933333333	0
bin	149.37266666667	0
bin	149.406	1
bin	149.43933333333	0
bin	149.47266666667	0
bin	149.506	0
bin	149.53933333333	0
bin	149.57266666667	0
bin	149.606	0
bin	149.63933333333	0
bin	149.67266666667	0
bin	149.706	0
bin	149.73933333333	0
bin	149.77266666667	0
bin	149.806	0
bin	149.83933333333	0
bin	149.87266666667	0
bin	149.906	0
statistic RandomGeometricGraph.rgnv[37] 	arrivalPerc:histogram
field count 1
field mean 1
field stddev nan
field sum 1
field sqrsum 1
field min 1
field max 1
attr interpolationmode  none
attr source  count(arrival)
attr title  "arrival perc, histogram"
bin	-INF	0
bin	0	0
bin	1	1
bin	2	0
statistic RandomGeometricGraph.rgnv[38] 	arrivalTime:histogram
field count 1
field mean 47.713
field stddev nan
field sum 47.713
field sqrsum 2276.530369
field min 47.713
field max 47.713
attr interpolationmode  none
attr source  arrivalTime
attr title  "arrival time, histogram"
bin	-INF	0
bin	47.213	0
bin	47.246333333333	0
bin	47.279666666667	0
bin	47.313	0
bin	47.346333333333	0
bin	47.379666666667	0
bin	47.413	0
bin	47.446333333333	0
bin	47.479666666667	0
bin	47.513	0
bin	47.546333333333	0
bin	47.579666666667	0
bin	47.613	0
bin	47.646333333333	0
bin	47.679666666667	0
bin	47.713	1
bin	47.746333333333	0
bin	47.779666666667	0
bin	47.813	0
bin	47.846333333333	0
bin	47.879666666667	0
bin	47.913	0
bin	47.946333333333	0
bin	47.979666666667	0
bin	48.013	0
bin	48.046333333333	0
bin	48.079666666667	0
bin	48.113	0
bin	48.146333333333	0
bin	48.179666666667	0
bin	48.213	0
statistic RandomGeometricGraph.rgnv[38] 	arrivalPerc:histogram
field count 1
field mean 1
field stddev nan
field sum 1
field sqrsum 1
field min 1
field max 1
attr interpolationmode  none
attr source  count(arrival)
attr title  "arrival perc, histogram"
bin	-INF	0
bin	0	0
bin	1	1
bin	2	0
statistic RandomGeometricGraph.rgnv[39] 	arrivalTime:histogram
field count 1
field mean 92.155
field stddev nan
field sum 92.155
field sqrsum 8492.544025
field min 92.155
field max 92.155
attr interpolationmode  none
attr source  arrivalTime
attr title  "arrival time, histogram"
bin	-INF	0
bin	91.655	0
bin	91.688333333333	0
bin	91.721666666667	0
bin	91.755	0
bin	91.788333333333	0
bin	91.821666666667	0
bin	91.855	0
bin	91.888333333333	0
bin	91.921666666667	0
bin	91.955	0
bin	91.988333333333	0
bin	92.021666666667	0
bin	92.055	0
bin	92.088333333333	0
bin	92.121666666667	0
bin	92.155	1
bin	92.188333333333	0
bin	92.221666666667	0
bin	92.255	0
bin	92.288333333333	0
bin	92.321666666667	0
bin	92.355	0
bin	92.388333333333	0
bin	92.421666666667	0
bin	92.455	0
bin	92.488333333333	0
bin	92.521666666667	0
bin	92.555	0
bin	92.588333333333	0
bin	92.621666666667	0
bin	92.655	0
statistic RandomGeometricGraph.rgnv[39] 	arrivalPerc:histogram
field count 1
field mean 1
field stddev nan
field sum 1
field sqrsum 1
field min 1
field max 1
attr interpolationmode  none
attr source  count(arrival)
attr title  "arrival perc, histogram"
bin	-INF	0
bin	0	0
bin	1	1
bin	2	0
statistic RandomGeometricGraph.rgnv[40] 	arrivalTime:histogram
field count 1
field mean 134.396
field stddev nan
field sum 134.396
field sqrsum 18062.284816
field min 134.396
field max 134.396
attr interpolationmode  none
attr source  arrivalTime
attr title  "arrival time, histogram"
bin	-INF	0
bin	133.896	0
bin	133.92933333333	0
bin	133.96266666667	0
bin	133.996	0
bin	134.02933333333	0
bin	134.06266666667	0
bin	134.096	0
bin	134.12933333333	0
bin	134.16266666667	0
bin	134.196	0
bin	134.22933333333	0
bin	134.26266666667	0
bin	134.296	0
bin	134.32933333333	0
bin	134.36266666667	0
bin	134.396	1
bin	134.42933333333	0
bin	134.46266666667	0
bin	134.496	0
bin	134.52933333333	0
bin	134.56266666667	0
bin	134.596	0
bin	134.62933333333	0
bin	134.66266666667	0
bin	134.696	0
bin	134.72933333333	0
bin	134.76266666667	0
bin	134.796	0
bin	134.82933333333	0
bin	134.86266666667	0
bin	134.896	0
statistic RandomGeometricGraph.rgnv[40] 	arrivalPerc:histogram
field count 1
field mean 1
field stddev nan
field sum 1
field sqrsum 1
field min 1
field max 1
attr interpolationmode  none
attr source  count(arrival)
attr title  "arrival perc, histogram"
bin	-INF	0
bin	0	0
bin	1	1
bin	2	0
statistic RandomGeometricGraph.rgnv[41] 	arrivalTime:histogram
field count 1
field mean 37.703
field stddev nan
field sum 37.703
field sqrsum 1421.516209
field min 37.703
field max 37.703
attr interpolationmode  none
attr source  arrivalTime
attr title  "arrival time, histogram"
bin	-INF	0
bin	37.203	0
bin	37.236333333333	0
bin	37.269666666667	0
bin	37.303	0
bin	37.336333333333	0
bin	37.369666666667	0
bin	37.403	0
bin	37.436333333333	0
bin	37.469666666667	0
bin	37.503	0
bin	37.536333333333	0
bin	37.569666666667	0
bin	37.603	0
bin	37.636333333333	0
bin	37.669666666667	0
bin	37.703	1
bin	37.736333333333	0
bin	37.769666666667	0
bin	37.803	0
bin	37.836333333333	0
bin	37.869666666667	0
bin	37.903	0
bin	37.936333333333	0
bin	37.969666666667	0
bin	38.003	0
bin	38.036333333333	0
bin	38.069666666667	0
bin	38.103	0
bin	38.136333333333	0
bin	38.169666666667	0
bin	38.203	0
statistic RandomGeometricGraph.rgnv[41] 	arrivalPerc:histogram
field count 1
field mean 1
field stddev nan
field sum 1
field sqrsum 1
field min 1
field max 1
attr interpolationmode  none
attr source  count(arrival)
attr title  "arrival perc, histogram"
bin	-INF	0
bin	0	0
bin	1	1
bin	2	0
statistic RandomGeometricGraph.rgnv[42] 	arrivalTime:histogram
field count 1
field mean 42.703
field stddev nan
field sum 42.703
field sqrsum 1823.546209
field min 42.703
field max 42.703
attr interpolationmode  none
attr source  arrivalTime
attr title  "arrival time, histogram"
bin	-INF	0
bin	42.203	0
bin	42.236333333333	0
bin	42.269666666667	0
bin	42.303	0
bin	42.336333333333	0
bin	42.369666666667	0
bin	42.403	0
bin	42.436333333333	0
bin	42.469666666667	0
bin	42.503	0
bin	42.536333333333	0
bin	42.569666666667	0
bin	42.603	0
bin	42.636333333333	0
bin	42.669666666667	0
bin	42.703	1
bin	42.736333333333	0
bin	42.769666666667	0
bin	42.803	0
bin	42.836333333333	0
bin	42.869666666667	0
bin	42.903	0
bin	42.936333333333	0
bin	42.969666666667	0
bin	43.003	0
bin	43.036333333333	0
bin	43.069666666667	0
bin	43.103	0
bin	43.136333333333	0
bin	43.169666666667	0
bin	43.203	0
statistic RandomGeometricGraph.rgnv[42] 	arrivalPerc:histogram
field count 1
field mean 1
field stddev nan
field sum 1
field sqrsum 1
field min 1
field max 1
attr interpolationmode  none
attr source  count(arrival)
attr title  "arrival perc, histogram"
bin	-INF	0
bin	0	0
bin	1	1
bin	2	0
statistic RandomGeometricGraph.rgnv[43] 	arrivalTime:histogram
field count 1
field mean 171.627
field stddev nan
field sum 171.627
field sqrsum 29455.827129
field min 171.627
field max 171.627
attr interpolationmode  none
attr source  arrivalTime
attr title  "arrival time, histogram"
bin	-INF	0
bin	171.127	0
bin	171.16033333333	0
bin	171.19366666667	0
bin	171.227	0
bin	171.26033333333	0
bin	171.29366666667	0
bin	171.327	0
bin	171.36033333333	0
bin	171.39366666667	0
bin	171.427	0
bin	171.46033333333	0
bin	171.49366666667	0
bin	171.527	0
bin	171.56033333333	0
bin	171.59366666667	0
bin	171.627	1
bin	171.66033333333	0
bin	171.69366666667	0
bin	171.727	0
bin	171.76033333333	0
bin	171.79366666667	0
bin	171.827	0
bin	171.86033333333	0
bin	171.89366666667	0
bin	171.927	0
bin	171.96033333333	0
bin	171.99366666667	0
bin	172.027	0
bin	172.06033333333	0
bin	172.09366666667	0
bin	172.127	0
statistic RandomGeometricGraph.rgnv[43] 	arrivalPerc:histogram
field count 1
field mean 1
field stddev nan
field sum 1
field sqrsum 1
field min 1
field max 1
attr interpolationmode  none
attr source  count(arrival)
attr title  "arrival perc, histogram"
bin	-INF	0
bin	0	0
bin	1	1
bin	2	0
statistic RandomGeometricGraph.rgnv[44] 	arrivalTime:histogram
field count 1
field mean 69.944
field stddev nan
field sum 69.944
field sqrsum 4892.163136
field min 69.944
field max 69.944
attr interpolationmode  none
attr source  arrivalTime
attr title  "arrival time, histogram"
bin	-INF	0
bin	69.444	0
bin	69.477333333333	0
bin	69.510666666667	0
bin	69.544	0
bin	69.577333333333	0
bin	69.610666666667	0
bin	69.644	0
bin	69.677333333333	0
bin	69.710666666667	0
bin	69.744	0
bin	69.777333333333	0
bin	69.810666666667	0
bin	69.844	0
bin	69.877333333333	0
bin	69.910666666667	0
bin	69.944	1
bin	69.977333333333	0
bin	70.010666666667	0
bin	70.044	0
bin	70.077333333333	0
bin	70.110666666667	0
bin	70.144	0
bin	70.177333333333	0
bin	70.210666666667	0
bin	70.244	0
bin	70.277333333333	0
bin	70.310666666667	0
bin	70.344	0
bin	70.377333333333	0
bin	70.410666666667	0
bin	70.444	0
statistic RandomGeometricGraph.rgnv[44] 	arrivalPerc:histogram
field count 1
field mean 1
field stddev nan
field sum 1
field sqrsum 1
field min 1
field max 1
attr interpolationmode  none
attr source  count(arrival)
attr title  "arrival perc, histogram"
bin	-INF	0
bin	0	0
bin	1	1
bin	2	0
statistic RandomGeometricGraph.rgnv[45] 	arrivalTime:histogram
field count 1
field mean 30.472
field stddev nan
field sum 30.472
field sqrsum 928.542784
field min 30.472
field max 30.472
attr interpolationmode  none
attr source  arrivalTime
attr title  "arrival time, histogram"
bin	-INF	0
bin	29.972	0
bin	30.005333333333	0
bin	30.038666666667	0
bin	30.072	0
bin	30.105333333333	0
bin	30.138666666667	0
bin	30.172	0
bin	30.205333333333	0
bin	30.238666666667	0
bin	30.272	0
bin	30.305333333333	0
bin	30.338666666667	0
bin	30.372	0
bin	30.405333333333	0
bin	30.438666666667	0
bin	30.472	1
bin	30.505333333333	0
bin	30.538666666667	0
bin	30.572	0
bin	30.605333333333	0
bin	30.638666666667	0
bin	30.672	0
bin	30.705333333333	0
bin	30.738666666667	0
bin	30.772	0
bin	30.805333333333	0
bin	30.838666666667	0
bin	30.872	0
bin	30.905333333333	0
bin	30.938666666667	0
bin	30.972	0
statistic RandomGeometricGraph.rgnv[45] 	arrivalPerc:histogram
field count 1
field mean 1
field stddev nan
field sum 1
field sqrsum 1
field min 1
field max 1
attr interpolationmode  none
attr source  count(arrival)
attr title  "arrival perc, histogram"
bin	-INF	0
bin	0	0
bin	1	1
bin	2	0
statistic RandomGeometricGraph.rgnv[46] 	arrivalTime:histogram
field count 1
field mean 25.462
field stddev nan
field sum 25.462
field sqrsum 648.313444
field min 25.462
field max 25.462
attr interpolationmode  none
attr source  arrivalTime
attr title  "arrival time, histogram"
bin	-INF	0
bin	24.962	0
bin	24.995333333333	0
bin	25.028666666667	0
bin	25.062	0
bin	25.095333333333	0
bin	25.128666666667	0
bin	25.162	0
bin	25.195333333333	0
bin	25.228666666667	0
bin	25.262	0
bin	25.295333333333	0
bin	25.328666666667	0
bin	25.362	0
bin	25.395333333333	0
bin	25.428666666667	0
bin	25.462	1
bin	25.495333333333	0
bin	25.528666666667	0
bin	25.562	0
bin	25.595333333333	0
bin	25.628666666667	0
bin	25.662	0
bin	25.695333333333	0
bin	25.728666666667	0
bin	25.762	0
bin	25.795333333333	0
bin	25.828666666667	0
bin	25.862	0
bin	25.895333333333	0
bin	25.928666666667	0
bin	25.962	0
statistic RandomGeometricGraph.rgnv[46] 	arrivalPerc:histogram
field count 1
field mean 1
field stddev nan
field sum 1
field sqrsum 1
field min 1
field max 1
attr interpolationmode  none
attr source  count(arrival)
attr title  "arrival perc, histogram"
bin	-INF	0
bin	0	0
bin	1	1
bin	2	0
statistic RandomGeometricGraph.rgnv[47] 	arrivalTime:histogram
field count 1
field mean 92.165
field stddev nan
field sum 92.165
field sqrsum 8494.387225
field min 92.165
field max 92.165
attr interpolationmode  none
attr source  arrivalTime
attr title  "arrival time, histogram"
bin	-INF	0
bin	91.665	0
bin	91.698333333333	0
bin	91.731666666667	0
bin	91.765	0
bin	91.798333333333	0
bin	91.831666666667	0
bin	91.865	0
bin	91.898333333333	0
bin	91.931666666667	0
bin	91.965	0
bin	91.998333333333	0
bin	92.031666666667	0
bin	92.065	0
bin	92.098333333333	0
bin	92.131666666667	0
bin	92.165	1
bin	92.198333333333	0
bin	92.231666666667	0
bin	92.265	0
bin	92.298333333333	0
bin	92.331666666667	0
bin	92.365	0
bin	92.398333333333	0
bin	92.431666666667	0
bin	92.465	0
bin	92.498333333333	0
bin	92.531666666667	0
bin	92.565	0
bin	92.598333333333	0
bin	92.631666666667	0
bin	92.665	0
statistic RandomGeometricGraph.rgnv[47] 	arrivalPerc:histogram
field count 1
field mean 1
field stddev nan
field sum 1
field sqrsum 1
field min 1
field max 1
attr interpolationmode  none
attr source  count(arrival)
attr title  "arrival perc, histogram"
bin	-INF	0
bin	0	0
bin	1	1
bin	2	0
statistic RandomGeometricGraph.rgnv[48] 	arrivalTime:histogram
field count 1
field mean 196.647
field stddev nan
field sum 196.647
field sqrsum 38670.042609
field min 196.647
field max 196.647
attr interpolationmode  none
attr source  arrivalTime
attr title  "arrival time, histogram"
bin	-INF	0
bin	196.147	0
bin	196.18033333333	0
bin	196.21366666667	0
bin	196.247	0
bin	196.28033333333	0
bin	196.31366666667	0
bin	196.347	0
bin	196.38033333333	0
bin	196.41366666667	0
bin	196.447	0
bin	196.48033333333	0
bin	196.51366666667	0
bin	196.547	0
bin	196.58033333333	0
bin	196.61366666667	0
bin	196.647	1
bin	196.68033333333	0
bin	196.71366666667	0
bin	196.747	0
bin	196.78033333333	0
bin	196.81366666667	0
bin	196.847	0
bin	196.88033333333	0
bin	196.91366666667	0
bin	196.947	0
bin	196.98033333333	0
bin	197.01366666667	0
bin	197.047	0
bin	197.08033333333	0
bin	197.11366666667	0
bin	197.147	0
statistic RandomGeometricGraph.rgnv[48] 	arrivalPerc:histogram
field count 1
field mean 1
field stddev nan
field sum 1
field sqrsum 1
field min 1
field max 1
attr interpolationmode  none
attr source  count(arrival)
attr title  "arrival perc, histogram"
bin	-INF	0
bin	0	0
bin	1	1
bin	2	0
statistic RandomGeometricGraph.rgnv[49] 	arrivalTime:histogram
field count 1
field mean 208.858
field stddev nan
field sum 208.858
field sqrsum 43621.664164
field min 208.858
field max 208.858
attr interpolationmode  none
attr source  arrivalTime
attr title  "arrival time, histogram"
bin	-INF	0
bin	208.358	0
bin	208.39133333333	0
bin	208.42466666667	0
bin	208.458	0
bin	208.49133333333	0
bin	208.52466666667	0
bin	208.558	0
bin	208.59133333333	0
bin	208.62466666667	0
bin	208.658	0
bin	208.69133333333	0
bin	208.72466666667	0
bin	208.758	0
bin	208.79133333333	0
bin	208.82466666667	0
bin	208.858	1
bin	208.89133333333	0
bin	208.92466666667	0
bin	208.958	0
bin	208.99133333333	0
bin	209.02466666667	0
bin	209.058	0
bin	209.09133333333	0
bin	209.12466666667	0
bin	209.158	0
bin	209.19133333333	0
bin	209.22466666667	0
bin	209.258	0
bin	209.29133333333	0
bin	209.32466666667	0
bin	209.358	0
statistic RandomGeometricGraph.rgnv[49] 	arrivalPerc:histogram
field count 1
field mean 1
field stddev nan
field sum 1
field sqrsum 1
field min 1
field max 1
attr interpolationmode  none
attr source  count(arrival)
attr title  "arrival perc, histogram"
bin	-INF	0
bin	0	0
bin	1	1
bin	2	0
