version 2
run rgg500-12-20170110-16:32:18-8696
attr configname rgg500
attr datetime 20170110-16:32:18
attr experiment rgg500
attr inifile iniFile/D001/omnetpp_50D001.ini
attr iterationvars ""
attr iterationvars2 $repetition=12
attr measurement ""
attr network blegossipprj.net.randomgeometricgraph.RandomGeometricGraph
attr processid 8696
attr repetition 12
attr replication #12
attr resultdir ../../results/D001/r50D001
attr runnumber 12
attr seedset 12
param RandomGeometricGraph.netSize 500
param RandomGeometricGraph.radius 50
param RandomGeometricGraph.rgnv[*].areaLength 158
param RandomGeometricGraph.rgnv[*].areaWidth 158

statistic RandomGeometricGraph.sc 	arrivalPercentage
field count 500
field mean 1
field stddev 0
field sum 500
field sqrsum 500
field min 1
field max 1
attr type  int
bin	-INF	0
bin	0	0
bin	1	500
bin	2	0
statistic RandomGeometricGraph.sc 	arrivalTime
field count 500
field mean 140.814972
field stddev 43.970918890322
field sum 70407.486
field sqrsum 10879215.582002
field min 0
field max 226.716
bin	-INF	0
bin	-51.929	0
bin	-45.005133333333	0
bin	-38.081266666667	0
bin	-31.1574	0
bin	-24.233533333333	0
bin	-17.309666666667	0
bin	-10.3858	0
bin	-3.4619333333333	1
bin	3.4619333333333	0
bin	10.3858	1
bin	17.309666666667	0
bin	24.233533333333	2
bin	31.1574	4
bin	38.081266666667	0
bin	45.005133333333	5
bin	51.929	2
bin	58.852866666667	6
bin	65.776733333333	8
bin	72.7006	17
bin	79.624466666667	7
bin	86.548333333333	21
bin	93.4722	14
bin	100.39606666667	29
bin	107.31993333333	30
bin	114.2438	28
bin	121.16766666667	22
bin	128.09153333333	36
bin	135.0154	28
bin	141.93926666667	22
bin	148.86313333333	28
bin	155.787	189
statistic RandomGeometricGraph.rgnv[0] 	arrivalTime:histogram
field count 1
field mean 218.36
field stddev nan
field sum 218.36
field sqrsum 47681.0896
field min 218.36
field max 218.36
attr interpolationmode  none
attr source  arrivalTime
attr title  "arrival time, histogram"
bin	-INF	0
bin	217.86	0
bin	217.89333333333	0
bin	217.92666666667	0
bin	217.96	0
bin	217.99333333333	0
bin	218.02666666667	0
bin	218.06	0
bin	218.09333333333	0
bin	218.12666666667	0
bin	218.16	0
bin	218.19333333333	0
bin	218.22666666667	0
bin	218.26	0
bin	218.29333333333	0
bin	218.32666666667	0
bin	218.36	1
bin	218.39333333333	0
bin	218.42666666667	0
bin	218.46	0
bin	218.49333333333	0
bin	218.52666666667	0
bin	218.56	0
bin	218.59333333333	0
bin	218.62666666667	0
bin	218.66	0
bin	218.69333333333	0
bin	218.72666666667	0
bin	218.76	0
bin	218.79333333333	0
bin	218.82666666667	0
bin	218.86	0
statistic RandomGeometricGraph.rgnv[0] 	arrivalPerc:histogram
field count 1
field mean 1
field stddev nan
field sum 1
field sqrsum 1
field min 1
field max 1
attr interpolationmode  none
attr source  count(arrival)
attr title  "arrival perc, histogram"
bin	-INF	0
bin	0	0
bin	1	1
bin	2	0
statistic RandomGeometricGraph.rgnv[1] 	arrivalTime:histogram
field count 1
field mean 96.627
field stddev nan
field sum 96.627
field sqrsum 9336.777129
field min 96.627
field max 96.627
attr interpolationmode  none
attr source  arrivalTime
attr title  "arrival time, histogram"
bin	-INF	0
bin	96.127	0
bin	96.160333333333	0
bin	96.193666666667	0
bin	96.227	0
bin	96.260333333333	0
bin	96.293666666667	0
bin	96.327	0
bin	96.360333333333	0
bin	96.393666666667	0
bin	96.427	0
bin	96.460333333333	0
bin	96.493666666667	0
bin	96.527	0
bin	96.560333333333	0
bin	96.593666666667	0
bin	96.627	1
bin	96.660333333333	0
bin	96.693666666667	0
bin	96.727	0
bin	96.760333333333	0
bin	96.793666666667	0
bin	96.827	0
bin	96.860333333333	0
bin	96.893666666667	0
bin	96.927	0
bin	96.960333333333	0
bin	96.993666666667	0
bin	97.027	0
bin	97.060333333333	0
bin	97.093666666667	0
bin	97.127	0
statistic RandomGeometricGraph.rgnv[1] 	arrivalPerc:histogram
field count 1
field mean 1
field stddev nan
field sum 1
field sqrsum 1
field min 1
field max 1
attr interpolationmode  none
attr source  count(arrival)
attr title  "arrival perc, histogram"
bin	-INF	0
bin	0	0
bin	1	1
bin	2	0
statistic RandomGeometricGraph.rgnv[2] 	arrivalTime:histogram
field count 1
field mean 113.878
field stddev nan
field sum 113.878
field sqrsum 12968.198884
field min 113.878
field max 113.878
attr interpolationmode  none
attr source  arrivalTime
attr title  "arrival time, histogram"
bin	-INF	0
bin	113.378	0
bin	113.41133333333	0
bin	113.44466666667	0
bin	113.478	0
bin	113.51133333333	0
bin	113.54466666667	0
bin	113.578	0
bin	113.61133333333	0
bin	113.64466666667	0
bin	113.678	0
bin	113.71133333333	0
bin	113.74466666667	0
bin	113.778	0
bin	113.81133333333	0
bin	113.84466666667	0
bin	113.878	1
bin	113.91133333333	0
bin	113.94466666667	0
bin	113.978	0
bin	114.01133333333	0
bin	114.04466666667	0
bin	114.078	0
bin	114.11133333333	0
bin	114.14466666667	0
bin	114.178	0
bin	114.21133333333	0
bin	114.24466666667	0
bin	114.278	0
bin	114.31133333333	0
bin	114.34466666667	0
bin	114.378	0
statistic RandomGeometricGraph.rgnv[2] 	arrivalPerc:histogram
field count 1
field mean 1
field stddev nan
field sum 1
field sqrsum 1
field min 1
field max 1
attr interpolationmode  none
attr source  count(arrival)
attr title  "arrival perc, histogram"
bin	-INF	0
bin	0	0
bin	1	1
bin	2	0
statistic RandomGeometricGraph.rgnv[3] 	arrivalTime:histogram
field count 1
field mean 72.175
field stddev nan
field sum 72.175
field sqrsum 5209.230625
field min 72.175
field max 72.175
attr interpolationmode  none
attr source  arrivalTime
attr title  "arrival time, histogram"
bin	-INF	0
bin	71.675	0
bin	71.708333333333	0
bin	71.741666666667	0
bin	71.775	0
bin	71.808333333333	0
bin	71.841666666667	0
bin	71.875	0
bin	71.908333333333	0
bin	71.941666666667	0
bin	71.975	0
bin	72.008333333333	0
bin	72.041666666667	0
bin	72.075	0
bin	72.108333333333	0
bin	72.141666666667	0
bin	72.175	1
bin	72.208333333333	0
bin	72.241666666667	0
bin	72.275	0
bin	72.308333333333	0
bin	72.341666666667	0
bin	72.375	0
bin	72.408333333333	0
bin	72.441666666667	0
bin	72.475	0
bin	72.508333333333	0
bin	72.541666666667	0
bin	72.575	0
bin	72.608333333333	0
bin	72.641666666667	0
bin	72.675	0
statistic RandomGeometricGraph.rgnv[3] 	arrivalPerc:histogram
field count 1
field mean 1
field stddev nan
field sum 1
field sqrsum 1
field min 1
field max 1
attr interpolationmode  none
attr source  count(arrival)
attr title  "arrival perc, histogram"
bin	-INF	0
bin	0	0
bin	1	1
bin	2	0
statistic RandomGeometricGraph.rgnv[4] 	arrivalTime:histogram
field count 1
field mean 133.33
field stddev nan
field sum 133.33
field sqrsum 17776.8889
field min 133.33
field max 133.33
attr interpolationmode  none
attr source  arrivalTime
attr title  "arrival time, histogram"
bin	-INF	0
bin	132.83	0
bin	132.86333333333	0
bin	132.89666666667	0
bin	132.93	0
bin	132.96333333333	0
bin	132.99666666667	0
bin	133.03	0
bin	133.06333333333	0
bin	133.09666666667	0
bin	133.13	0
bin	133.16333333333	0
bin	133.19666666667	0
bin	133.23	0
bin	133.26333333333	0
bin	133.29666666667	0
bin	133.33	1
bin	133.36333333333	0
bin	133.39666666667	0
bin	133.43	0
bin	133.46333333333	0
bin	133.49666666667	0
bin	133.53	0
bin	133.56333333333	0
bin	133.59666666667	0
bin	133.63	0
bin	133.66333333333	0
bin	133.69666666667	0
bin	133.73	0
bin	133.76333333333	0
bin	133.79666666667	0
bin	133.83	0
statistic RandomGeometricGraph.rgnv[4] 	arrivalPerc:histogram
field count 1
field mean 1
field stddev nan
field sum 1
field sqrsum 1
field min 1
field max 1
attr interpolationmode  none
attr source  count(arrival)
attr title  "arrival perc, histogram"
bin	-INF	0
bin	0	0
bin	1	1
bin	2	0
statistic RandomGeometricGraph.rgnv[5] 	arrivalTime:histogram
field count 1
field mean 145.561
field stddev nan
field sum 145.561
field sqrsum 21188.004721
field min 145.561
field max 145.561
attr interpolationmode  none
attr source  arrivalTime
attr title  "arrival time, histogram"
bin	-INF	0
bin	145.061	0
bin	145.09433333333	0
bin	145.12766666667	0
bin	145.161	0
bin	145.19433333333	0
bin	145.22766666667	0
bin	145.261	0
bin	145.29433333333	0
bin	145.32766666667	0
bin	145.361	0
bin	145.39433333333	0
bin	145.42766666667	0
bin	145.461	0
bin	145.49433333333	0
bin	145.52766666667	0
bin	145.561	1
bin	145.59433333333	0
bin	145.62766666667	0
bin	145.661	0
bin	145.69433333333	0
bin	145.72766666667	0
bin	145.761	0
bin	145.79433333333	0
bin	145.82766666667	0
bin	145.861	0
bin	145.89433333333	0
bin	145.92766666667	0
bin	145.961	0
bin	145.99433333333	0
bin	146.02766666667	0
bin	146.061	0
statistic RandomGeometricGraph.rgnv[5] 	arrivalPerc:histogram
field count 1
field mean 1
field stddev nan
field sum 1
field sqrsum 1
field min 1
field max 1
attr interpolationmode  none
attr source  count(arrival)
attr title  "arrival perc, histogram"
bin	-INF	0
bin	0	0
bin	1	1
bin	2	0
statistic RandomGeometricGraph.rgnv[6] 	arrivalTime:histogram
field count 1
field mean 101.647
field stddev nan
field sum 101.647
field sqrsum 10332.112609
field min 101.647
field max 101.647
attr interpolationmode  none
attr source  arrivalTime
attr title  "arrival time, histogram"
bin	-INF	0
bin	101.147	0
bin	101.18033333333	0
bin	101.21366666667	0
bin	101.247	0
bin	101.28033333333	0
bin	101.31366666667	0
bin	101.347	0
bin	101.38033333333	0
bin	101.41366666667	0
bin	101.447	0
bin	101.48033333333	0
bin	101.51366666667	0
bin	101.547	0
bin	101.58033333333	0
bin	101.61366666667	0
bin	101.647	1
bin	101.68033333333	0
bin	101.71366666667	0
bin	101.747	0
bin	101.78033333333	0
bin	101.81366666667	0
bin	101.847	0
bin	101.88033333333	0
bin	101.91366666667	0
bin	101.947	0
bin	101.98033333333	0
bin	102.01366666667	0
bin	102.047	0
bin	102.08033333333	0
bin	102.11366666667	0
bin	102.147	0
statistic RandomGeometricGraph.rgnv[6] 	arrivalPerc:histogram
field count 1
field mean 1
field stddev nan
field sum 1
field sqrsum 1
field min 1
field max 1
attr interpolationmode  none
attr source  count(arrival)
attr title  "arrival perc, histogram"
bin	-INF	0
bin	0	0
bin	1	1
bin	2	0
statistic RandomGeometricGraph.rgnv[7] 	arrivalTime:histogram
field count 1
field mean 128.888
field stddev nan
field sum 128.888
field sqrsum 16612.116544
field min 128.888
field max 128.888
attr interpolationmode  none
attr source  arrivalTime
attr title  "arrival time, histogram"
bin	-INF	0
bin	128.388	0
bin	128.42133333333	0
bin	128.45466666667	0
bin	128.488	0
bin	128.52133333333	0
bin	128.55466666667	0
bin	128.588	0
bin	128.62133333333	0
bin	128.65466666667	0
bin	128.688	0
bin	128.72133333333	0
bin	128.75466666667	0
bin	128.788	0
bin	128.82133333333	0
bin	128.85466666667	0
bin	128.888	1
bin	128.92133333333	0
bin	128.95466666667	0
bin	128.988	0
bin	129.02133333333	0
bin	129.05466666667	0
bin	129.088	0
bin	129.12133333333	0
bin	129.15466666667	0
bin	129.188	0
bin	129.22133333333	0
bin	129.25466666667	0
bin	129.288	0
bin	129.32133333333	0
bin	129.35466666667	0
bin	129.388	0
statistic RandomGeometricGraph.rgnv[7] 	arrivalPerc:histogram
field count 1
field mean 1
field stddev nan
field sum 1
field sqrsum 1
field min 1
field max 1
attr interpolationmode  none
attr source  count(arrival)
attr title  "arrival perc, histogram"
bin	-INF	0
bin	0	0
bin	1	1
bin	2	0
statistic RandomGeometricGraph.rgnv[8] 	arrivalTime:histogram
field count 1
field mean 167.782
field stddev nan
field sum 167.782
field sqrsum 28150.799524
field min 167.782
field max 167.782
attr interpolationmode  none
attr source  arrivalTime
attr title  "arrival time, histogram"
bin	-INF	0
bin	167.282	0
bin	167.31533333333	0
bin	167.34866666667	0
bin	167.382	0
bin	167.41533333333	0
bin	167.44866666667	0
bin	167.482	0
bin	167.51533333333	0
bin	167.54866666667	0
bin	167.582	0
bin	167.61533333333	0
bin	167.64866666667	0
bin	167.682	0
bin	167.71533333333	0
bin	167.74866666667	0
bin	167.782	1
bin	167.81533333333	0
bin	167.84866666667	0
bin	167.882	0
bin	167.91533333333	0
bin	167.94866666667	0
bin	167.982	0
bin	168.01533333333	0
bin	168.04866666667	0
bin	168.082	0
bin	168.11533333333	0
bin	168.14866666667	0
bin	168.182	0
bin	168.21533333333	0
bin	168.24866666667	0
bin	168.282	0
statistic RandomGeometricGraph.rgnv[8] 	arrivalPerc:histogram
field count 1
field mean 1
field stddev nan
field sum 1
field sqrsum 1
field min 1
field max 1
attr interpolationmode  none
attr source  count(arrival)
attr title  "arrival perc, histogram"
bin	-INF	0
bin	0	0
bin	1	1
bin	2	0
statistic RandomGeometricGraph.rgnv[9] 	arrivalTime:histogram
field count 1
field mean 170.013
field stddev nan
field sum 170.013
field sqrsum 28904.420169
field min 170.013
field max 170.013
attr interpolationmode  none
attr source  arrivalTime
attr title  "arrival time, histogram"
bin	-INF	0
bin	169.513	0
bin	169.54633333333	0
bin	169.57966666667	0
bin	169.613	0
bin	169.64633333333	0
bin	169.67966666667	0
bin	169.713	0
bin	169.74633333333	0
bin	169.77966666667	0
bin	169.813	0
bin	169.84633333333	0
bin	169.87966666667	0
bin	169.913	0
bin	169.94633333333	0
bin	169.97966666667	0
bin	170.013	1
bin	170.04633333333	0
bin	170.07966666667	0
bin	170.113	0
bin	170.14633333333	0
bin	170.17966666667	0
bin	170.213	0
bin	170.24633333333	0
bin	170.27966666667	0
bin	170.313	0
bin	170.34633333333	0
bin	170.37966666667	0
bin	170.413	0
bin	170.44633333333	0
bin	170.47966666667	0
bin	170.513	0
statistic RandomGeometricGraph.rgnv[9] 	arrivalPerc:histogram
field count 1
field mean 1
field stddev nan
field sum 1
field sqrsum 1
field min 1
field max 1
attr interpolationmode  none
attr source  count(arrival)
attr title  "arrival perc, histogram"
bin	-INF	0
bin	0	0
bin	1	1
bin	2	0
statistic RandomGeometricGraph.rgnv[10] 	arrivalTime:histogram
field count 1
field mean 199.485
field stddev nan
field sum 199.485
field sqrsum 39794.265225
field min 199.485
field max 199.485
attr interpolationmode  none
attr source  arrivalTime
attr title  "arrival time, histogram"
bin	-INF	0
bin	198.985	0
bin	199.01833333333	0
bin	199.05166666667	0
bin	199.085	0
bin	199.11833333333	0
bin	199.15166666667	0
bin	199.185	0
bin	199.21833333333	0
bin	199.25166666667	0
bin	199.285	0
bin	199.31833333333	0
bin	199.35166666667	0
bin	199.385	0
bin	199.41833333333	0
bin	199.45166666667	0
bin	199.485	1
bin	199.51833333333	0
bin	199.55166666667	0
bin	199.585	0
bin	199.61833333333	0
bin	199.65166666667	0
bin	199.685	0
bin	199.71833333333	0
bin	199.75166666667	0
bin	199.785	0
bin	199.81833333333	0
bin	199.85166666667	0
bin	199.885	0
bin	199.91833333333	0
bin	199.95166666667	0
bin	199.985	0
statistic RandomGeometricGraph.rgnv[10] 	arrivalPerc:histogram
field count 1
field mean 1
field stddev nan
field sum 1
field sqrsum 1
field min 1
field max 1
attr interpolationmode  none
attr source  count(arrival)
attr title  "arrival perc, histogram"
bin	-INF	0
bin	0	0
bin	1	1
bin	2	0
statistic RandomGeometricGraph.rgnv[11] 	arrivalTime:histogram
field count 1
field mean 133.888
field stddev nan
field sum 133.888
field sqrsum 17925.996544
field min 133.888
field max 133.888
attr interpolationmode  none
attr source  arrivalTime
attr title  "arrival time, histogram"
bin	-INF	0
bin	133.388	0
bin	133.42133333333	0
bin	133.45466666667	0
bin	133.488	0
bin	133.52133333333	0
bin	133.55466666667	0
bin	133.588	0
bin	133.62133333333	0
bin	133.65466666667	0
bin	133.688	0
bin	133.72133333333	0
bin	133.75466666667	0
bin	133.788	0
bin	133.82133333333	0
bin	133.85466666667	0
bin	133.888	1
bin	133.92133333333	0
bin	133.95466666667	0
bin	133.988	0
bin	134.02133333333	0
bin	134.05466666667	0
bin	134.088	0
bin	134.12133333333	0
bin	134.15466666667	0
bin	134.188	0
bin	134.22133333333	0
bin	134.25466666667	0
bin	134.288	0
bin	134.32133333333	0
bin	134.35466666667	0
bin	134.388	0
statistic RandomGeometricGraph.rgnv[11] 	arrivalPerc:histogram
field count 1
field mean 1
field stddev nan
field sum 1
field sqrsum 1
field min 1
field max 1
attr interpolationmode  none
attr source  count(arrival)
attr title  "arrival perc, histogram"
bin	-INF	0
bin	0	0
bin	1	1
bin	2	0
statistic RandomGeometricGraph.rgnv[12] 	arrivalTime:histogram
field count 1
field mean 151.099
field stddev nan
field sum 151.099
field sqrsum 22830.907801
field min 151.099
field max 151.099
attr interpolationmode  none
attr source  arrivalTime
attr title  "arrival time, histogram"
bin	-INF	0
bin	150.599	0
bin	150.63233333333	0
bin	150.66566666667	0
bin	150.699	0
bin	150.73233333333	0
bin	150.76566666667	0
bin	150.799	0
bin	150.83233333333	0
bin	150.86566666667	0
bin	150.899	0
bin	150.93233333333	0
bin	150.96566666667	0
bin	150.999	0
bin	151.03233333333	0
bin	151.06566666667	0
bin	151.099	1
bin	151.13233333333	0
bin	151.16566666667	0
bin	151.199	0
bin	151.23233333333	0
bin	151.26566666667	0
bin	151.299	0
bin	151.33233333333	0
bin	151.36566666667	0
bin	151.399	0
bin	151.43233333333	0
bin	151.46566666667	0
bin	151.499	0
bin	151.53233333333	0
bin	151.56566666667	0
bin	151.599	0
statistic RandomGeometricGraph.rgnv[12] 	arrivalPerc:histogram
field count 1
field mean 1
field stddev nan
field sum 1
field sqrsum 1
field min 1
field max 1
attr interpolationmode  none
attr source  count(arrival)
attr title  "arrival perc, histogram"
bin	-INF	0
bin	0	0
bin	1	1
bin	2	0
statistic RandomGeometricGraph.rgnv[13] 	arrivalTime:histogram
field count 1
field mean 123.878
field stddev nan
field sum 123.878
field sqrsum 15345.758884
field min 123.878
field max 123.878
attr interpolationmode  none
attr source  arrivalTime
attr title  "arrival time, histogram"
bin	-INF	0
bin	123.378	0
bin	123.41133333333	0
bin	123.44466666667	0
bin	123.478	0
bin	123.51133333333	0
bin	123.54466666667	0
bin	123.578	0
bin	123.61133333333	0
bin	123.64466666667	0
bin	123.678	0
bin	123.71133333333	0
bin	123.74466666667	0
bin	123.778	0
bin	123.81133333333	0
bin	123.84466666667	0
bin	123.878	1
bin	123.91133333333	0
bin	123.94466666667	0
bin	123.978	0
bin	124.01133333333	0
bin	124.04466666667	0
bin	124.078	0
bin	124.11133333333	0
bin	124.14466666667	0
bin	124.178	0
bin	124.21133333333	0
bin	124.24466666667	0
bin	124.278	0
bin	124.31133333333	0
bin	124.34466666667	0
bin	124.378	0
statistic RandomGeometricGraph.rgnv[13] 	arrivalPerc:histogram
field count 1
field mean 1
field stddev nan
field sum 1
field sqrsum 1
field min 1
field max 1
attr interpolationmode  none
attr source  count(arrival)
attr title  "arrival perc, histogram"
bin	-INF	0
bin	0	0
bin	1	1
bin	2	0
statistic RandomGeometricGraph.rgnv[14] 	arrivalTime:histogram
field count 1
field mean 160.003
field stddev nan
field sum 160.003
field sqrsum 25600.960009
field min 160.003
field max 160.003
attr interpolationmode  none
attr source  arrivalTime
attr title  "arrival time, histogram"
bin	-INF	0
bin	159.503	0
bin	159.53633333333	0
bin	159.56966666667	0
bin	159.603	0
bin	159.63633333333	0
bin	159.66966666667	0
bin	159.703	0
bin	159.73633333333	0
bin	159.76966666667	0
bin	159.803	0
bin	159.83633333333	0
bin	159.86966666667	0
bin	159.903	0
bin	159.93633333333	0
bin	159.96966666667	0
bin	160.003	1
bin	160.03633333333	0
bin	160.06966666667	0
bin	160.103	0
bin	160.13633333333	0
bin	160.16966666667	0
bin	160.203	0
bin	160.23633333333	0
bin	160.26966666667	0
bin	160.303	0
bin	160.33633333333	0
bin	160.36966666667	0
bin	160.403	0
bin	160.43633333333	0
bin	160.46966666667	0
bin	160.503	0
statistic RandomGeometricGraph.rgnv[14] 	arrivalPerc:histogram
field count 1
field mean 1
field stddev nan
field sum 1
field sqrsum 1
field min 1
field max 1
attr interpolationmode  none
attr source  count(arrival)
attr title  "arrival perc, histogram"
bin	-INF	0
bin	0	0
bin	1	1
bin	2	0
statistic RandomGeometricGraph.rgnv[15] 	arrivalTime:histogram
field count 1
field mean 116.099
field stddev nan
field sum 116.099
field sqrsum 13478.977801
field min 116.099
field max 116.099
attr interpolationmode  none
attr source  arrivalTime
attr title  "arrival time, histogram"
bin	-INF	0
bin	115.599	0
bin	115.63233333333	0
bin	115.66566666667	0
bin	115.699	0
bin	115.73233333333	0
bin	115.76566666667	0
bin	115.799	0
bin	115.83233333333	0
bin	115.86566666667	0
bin	115.899	0
bin	115.93233333333	0
bin	115.96566666667	0
bin	115.999	0
bin	116.03233333333	0
bin	116.06566666667	0
bin	116.099	1
bin	116.13233333333	0
bin	116.16566666667	0
bin	116.199	0
bin	116.23233333333	0
bin	116.26566666667	0
bin	116.299	0
bin	116.33233333333	0
bin	116.36566666667	0
bin	116.399	0
bin	116.43233333333	0
bin	116.46566666667	0
bin	116.499	0
bin	116.53233333333	0
bin	116.56566666667	0
bin	116.599	0
statistic RandomGeometricGraph.rgnv[15] 	arrivalPerc:histogram
field count 1
field mean 1
field stddev nan
field sum 1
field sqrsum 1
field min 1
field max 1
attr interpolationmode  none
attr source  count(arrival)
attr title  "arrival perc, histogram"
bin	-INF	0
bin	0	0
bin	1	1
bin	2	0
statistic RandomGeometricGraph.rgnv[16] 	arrivalTime:histogram
field count 1
field mean 106.647
field stddev nan
field sum 106.647
field sqrsum 11373.582609
field min 106.647
field max 106.647
attr interpolationmode  none
attr source  arrivalTime
attr title  "arrival time, histogram"
bin	-INF	0
bin	106.147	0
bin	106.18033333333	0
bin	106.21366666667	0
bin	106.247	0
bin	106.28033333333	0
bin	106.31366666667	0
bin	106.347	0
bin	106.38033333333	0
bin	106.41366666667	0
bin	106.447	0
bin	106.48033333333	0
bin	106.51366666667	0
bin	106.547	0
bin	106.58033333333	0
bin	106.61366666667	0
bin	106.647	1
bin	106.68033333333	0
bin	106.71366666667	0
bin	106.747	0
bin	106.78033333333	0
bin	106.81366666667	0
bin	106.847	0
bin	106.88033333333	0
bin	106.91366666667	0
bin	106.947	0
bin	106.98033333333	0
bin	107.01366666667	0
bin	107.047	0
bin	107.08033333333	0
bin	107.11366666667	0
bin	107.147	0
statistic RandomGeometricGraph.rgnv[16] 	arrivalPerc:histogram
field count 1
field mean 1
field stddev nan
field sum 1
field sqrsum 1
field min 1
field max 1
attr interpolationmode  none
attr source  count(arrival)
attr title  "arrival perc, histogram"
bin	-INF	0
bin	0	0
bin	1	1
bin	2	0
statistic RandomGeometricGraph.rgnv[17] 	arrivalTime:histogram
field count 1
field mean 196.129
field stddev nan
field sum 196.129
field sqrsum 38466.584641
field min 196.129
field max 196.129
attr interpolationmode  none
attr source  arrivalTime
attr title  "arrival time, histogram"
bin	-INF	0
bin	195.629	0
bin	195.66233333333	0
bin	195.69566666667	0
bin	195.729	0
bin	195.76233333333	0
bin	195.79566666667	0
bin	195.829	0
bin	195.86233333333	0
bin	195.89566666667	0
bin	195.929	0
bin	195.96233333333	0
bin	195.99566666667	0
bin	196.029	0
bin	196.06233333333	0
bin	196.09566666667	0
bin	196.129	1
bin	196.16233333333	0
bin	196.19566666667	0
bin	196.229	0
bin	196.26233333333	0
bin	196.29566666667	0
bin	196.329	0
bin	196.36233333333	0
bin	196.39566666667	0
bin	196.429	0
bin	196.46233333333	0
bin	196.49566666667	0
bin	196.529	0
bin	196.56233333333	0
bin	196.59566666667	0
bin	196.629	0
statistic RandomGeometricGraph.rgnv[17] 	arrivalPerc:histogram
field count 1
field mean 1
field stddev nan
field sum 1
field sqrsum 1
field min 1
field max 1
attr interpolationmode  none
attr source  count(arrival)
attr title  "arrival perc, histogram"
bin	-INF	0
bin	0	0
bin	1	1
bin	2	0
statistic RandomGeometricGraph.rgnv[18] 	arrivalTime:histogram
field count 1
field mean 101.637
field stddev nan
field sum 101.637
field sqrsum 10330.079769
field min 101.637
field max 101.637
attr interpolationmode  none
attr source  arrivalTime
attr title  "arrival time, histogram"
bin	-INF	0
bin	101.137	0
bin	101.17033333333	0
bin	101.20366666667	0
bin	101.237	0
bin	101.27033333333	0
bin	101.30366666667	0
bin	101.337	0
bin	101.37033333333	0
bin	101.40366666667	0
bin	101.437	0
bin	101.47033333333	0
bin	101.50366666667	0
bin	101.537	0
bin	101.57033333333	0
bin	101.60366666667	0
bin	101.637	1
bin	101.67033333333	0
bin	101.70366666667	0
bin	101.737	0
bin	101.77033333333	0
bin	101.80366666667	0
bin	101.837	0
bin	101.87033333333	0
bin	101.90366666667	0
bin	101.937	0
bin	101.97033333333	0
bin	102.00366666667	0
bin	102.037	0
bin	102.07033333333	0
bin	102.10366666667	0
bin	102.137	0
statistic RandomGeometricGraph.rgnv[18] 	arrivalPerc:histogram
field count 1
field mean 1
field stddev nan
field sum 1
field sqrsum 1
field min 1
field max 1
attr interpolationmode  none
attr source  count(arrival)
attr title  "arrival perc, histogram"
bin	-INF	0
bin	0	0
bin	1	1
bin	2	0
statistic RandomGeometricGraph.rgnv[19] 	arrivalTime:histogram
field count 1
field mean 118.878
field stddev nan
field sum 118.878
field sqrsum 14131.978884
field min 118.878
field max 118.878
attr interpolationmode  none
attr source  arrivalTime
attr title  "arrival time, histogram"
bin	-INF	0
bin	118.378	0
bin	118.41133333333	0
bin	118.44466666667	0
bin	118.478	0
bin	118.51133333333	0
bin	118.54466666667	0
bin	118.578	0
bin	118.61133333333	0
bin	118.64466666667	0
bin	118.678	0
bin	118.71133333333	0
bin	118.74466666667	0
bin	118.778	0
bin	118.81133333333	0
bin	118.84466666667	0
bin	118.878	1
bin	118.91133333333	0
bin	118.94466666667	0
bin	118.978	0
bin	119.01133333333	0
bin	119.04466666667	0
bin	119.078	0
bin	119.11133333333	0
bin	119.14466666667	0
bin	119.178	0
bin	119.21133333333	0
bin	119.24466666667	0
bin	119.278	0
bin	119.31133333333	0
bin	119.34466666667	0
bin	119.378	0
statistic RandomGeometricGraph.rgnv[19] 	arrivalPerc:histogram
field count 1
field mean 1
field stddev nan
field sum 1
field sqrsum 1
field min 1
field max 1
attr interpolationmode  none
attr source  count(arrival)
attr title  "arrival perc, histogram"
bin	-INF	0
bin	0	0
bin	1	1
bin	2	0
statistic RandomGeometricGraph.rgnv[20] 	arrivalTime:histogram
field count 1
field mean 25.462
field stddev nan
field sum 25.462
field sqrsum 648.313444
field min 25.462
field max 25.462
attr interpolationmode  none
attr source  arrivalTime
attr title  "arrival time, histogram"
bin	-INF	0
bin	24.962	0
bin	24.995333333333	0
bin	25.028666666667	0
bin	25.062	0
bin	25.095333333333	0
bin	25.128666666667	0
bin	25.162	0
bin	25.195333333333	0
bin	25.228666666667	0
bin	25.262	0
bin	25.295333333333	0
bin	25.328666666667	0
bin	25.362	0
bin	25.395333333333	0
bin	25.428666666667	0
bin	25.462	1
bin	25.495333333333	0
bin	25.528666666667	0
bin	25.562	0
bin	25.595333333333	0
bin	25.628666666667	0
bin	25.662	0
bin	25.695333333333	0
bin	25.728666666667	0
bin	25.762	0
bin	25.795333333333	0
bin	25.828666666667	0
bin	25.862	0
bin	25.895333333333	0
bin	25.928666666667	0
bin	25.962	0
statistic RandomGeometricGraph.rgnv[20] 	arrivalPerc:histogram
field count 1
field mean 1
field stddev nan
field sum 1
field sqrsum 1
field min 1
field max 1
attr interpolationmode  none
attr source  count(arrival)
attr title  "arrival perc, histogram"
bin	-INF	0
bin	0	0
bin	1	1
bin	2	0
statistic RandomGeometricGraph.rgnv[21] 	arrivalTime:histogram
field count 1
field mean 190.013
field stddev nan
field sum 190.013
field sqrsum 36104.940169
field min 190.013
field max 190.013
attr interpolationmode  none
attr source  arrivalTime
attr title  "arrival time, histogram"
bin	-INF	0
bin	189.513	0
bin	189.54633333333	0
bin	189.57966666667	0
bin	189.613	0
bin	189.64633333333	0
bin	189.67966666667	0
bin	189.713	0
bin	189.74633333333	0
bin	189.77966666667	0
bin	189.813	0
bin	189.84633333333	0
bin	189.87966666667	0
bin	189.913	0
bin	189.94633333333	0
bin	189.97966666667	0
bin	190.013	1
bin	190.04633333333	0
bin	190.07966666667	0
bin	190.113	0
bin	190.14633333333	0
bin	190.17966666667	0
bin	190.213	0
bin	190.24633333333	0
bin	190.27966666667	0
bin	190.313	0
bin	190.34633333333	0
bin	190.37966666667	0
bin	190.413	0
bin	190.44633333333	0
bin	190.47966666667	0
bin	190.513	0
statistic RandomGeometricGraph.rgnv[21] 	arrivalPerc:histogram
field count 1
field mean 1
field stddev nan
field sum 1
field sqrsum 1
field min 1
field max 1
attr interpolationmode  none
attr source  count(arrival)
attr title  "arrival perc, histogram"
bin	-INF	0
bin	0	0
bin	1	1
bin	2	0
statistic RandomGeometricGraph.rgnv[22] 	arrivalTime:histogram
field count 1
field mean 160.561
field stddev nan
field sum 160.561
field sqrsum 25779.834721
field min 160.561
field max 160.561
attr interpolationmode  none
attr source  arrivalTime
attr title  "arrival time, histogram"
bin	-INF	0
bin	160.061	0
bin	160.09433333333	0
bin	160.12766666667	0
bin	160.161	0
bin	160.19433333333	0
bin	160.22766666667	0
bin	160.261	0
bin	160.29433333333	0
bin	160.32766666667	0
bin	160.361	0
bin	160.39433333333	0
bin	160.42766666667	0
bin	160.461	0
bin	160.49433333333	0
bin	160.52766666667	0
bin	160.561	1
bin	160.59433333333	0
bin	160.62766666667	0
bin	160.661	0
bin	160.69433333333	0
bin	160.72766666667	0
bin	160.761	0
bin	160.79433333333	0
bin	160.82766666667	0
bin	160.861	0
bin	160.89433333333	0
bin	160.92766666667	0
bin	160.961	0
bin	160.99433333333	0
bin	161.02766666667	0
bin	161.061	0
statistic RandomGeometricGraph.rgnv[22] 	arrivalPerc:histogram
field count 1
field mean 1
field stddev nan
field sum 1
field sqrsum 1
field min 1
field max 1
attr interpolationmode  none
attr source  count(arrival)
attr title  "arrival perc, histogram"
bin	-INF	0
bin	0	0
bin	1	1
bin	2	0
statistic RandomGeometricGraph.rgnv[23] 	arrivalTime:histogram
field count 1
field mean 202.792
field stddev nan
field sum 202.792
field sqrsum 41124.595264
field min 202.792
field max 202.792
attr interpolationmode  none
attr source  arrivalTime
attr title  "arrival time, histogram"
bin	-INF	0
bin	202.292	0
bin	202.32533333333	0
bin	202.35866666667	0
bin	202.392	0
bin	202.42533333333	0
bin	202.45866666667	0
bin	202.492	0
bin	202.52533333333	0
bin	202.55866666667	0
bin	202.592	0
bin	202.62533333333	0
bin	202.65866666667	0
bin	202.692	0
bin	202.72533333333	0
bin	202.75866666667	0
bin	202.792	1
bin	202.82533333333	0
bin	202.85866666667	0
bin	202.892	0
bin	202.92533333333	0
bin	202.95866666667	0
bin	202.992	0
bin	203.02533333333	0
bin	203.05866666667	0
bin	203.092	0
bin	203.12533333333	0
bin	203.15866666667	0
bin	203.192	0
bin	203.22533333333	0
bin	203.25866666667	0
bin	203.292	0
statistic RandomGeometricGraph.rgnv[23] 	arrivalPerc:histogram
field count 1
field mean 1
field stddev nan
field sum 1
field sqrsum 1
field min 1
field max 1
attr interpolationmode  none
attr source  count(arrival)
attr title  "arrival perc, histogram"
bin	-INF	0
bin	0	0
bin	1	1
bin	2	0
statistic RandomGeometricGraph.rgnv[24] 	arrivalTime:histogram
field count 1
field mean 135.551
field stddev nan
field sum 135.551
field sqrsum 18374.073601
field min 135.551
field max 135.551
attr interpolationmode  none
attr source  arrivalTime
attr title  "arrival time, histogram"
bin	-INF	0
bin	135.051	0
bin	135.08433333333	0
bin	135.11766666667	0
bin	135.151	0
bin	135.18433333333	0
bin	135.21766666667	0
bin	135.251	0
bin	135.28433333333	0
bin	135.31766666667	0
bin	135.351	0
bin	135.38433333333	0
bin	135.41766666667	0
bin	135.451	0
bin	135.48433333333	0
bin	135.51766666667	0
bin	135.551	1
bin	135.58433333333	0
bin	135.61766666667	0
bin	135.651	0
bin	135.68433333333	0
bin	135.71766666667	0
bin	135.751	0
bin	135.78433333333	0
bin	135.81766666667	0
bin	135.851	0
bin	135.88433333333	0
bin	135.91766666667	0
bin	135.951	0
bin	135.98433333333	0
bin	136.01766666667	0
bin	136.051	0
statistic RandomGeometricGraph.rgnv[24] 	arrivalPerc:histogram
field count 1
field mean 1
field stddev nan
field sum 1
field sqrsum 1
field min 1
field max 1
attr interpolationmode  none
attr source  count(arrival)
attr title  "arrival perc, histogram"
bin	-INF	0
bin	0	0
bin	1	1
bin	2	0
statistic RandomGeometricGraph.rgnv[25] 	arrivalTime:histogram
field count 1
field mean 202.792
field stddev nan
field sum 202.792
field sqrsum 41124.595264
field min 202.792
field max 202.792
attr interpolationmode  none
attr source  arrivalTime
attr title  "arrival time, histogram"
bin	-INF	0
bin	202.292	0
bin	202.32533333333	0
bin	202.35866666667	0
bin	202.392	0
bin	202.42533333333	0
bin	202.45866666667	0
bin	202.492	0
bin	202.52533333333	0
bin	202.55866666667	0
bin	202.592	0
bin	202.62533333333	0
bin	202.65866666667	0
bin	202.692	0
bin	202.72533333333	0
bin	202.75866666667	0
bin	202.792	1
bin	202.82533333333	0
bin	202.85866666667	0
bin	202.892	0
bin	202.92533333333	0
bin	202.95866666667	0
bin	202.992	0
bin	203.02533333333	0
bin	203.05866666667	0
bin	203.092	0
bin	203.12533333333	0
bin	203.15866666667	0
bin	203.192	0
bin	203.22533333333	0
bin	203.25866666667	0
bin	203.292	0
statistic RandomGeometricGraph.rgnv[25] 	arrivalPerc:histogram
field count 1
field mean 1
field stddev nan
field sum 1
field sqrsum 1
field min 1
field max 1
attr interpolationmode  none
attr source  count(arrival)
attr title  "arrival perc, histogram"
bin	-INF	0
bin	0	0
bin	1	1
bin	2	0
statistic RandomGeometricGraph.rgnv[26] 	arrivalTime:histogram
field count 1
field mean 138.33
field stddev nan
field sum 138.33
field sqrsum 19135.1889
field min 138.33
field max 138.33
attr interpolationmode  none
attr source  arrivalTime
attr title  "arrival time, histogram"
bin	-INF	0
bin	137.83	0
bin	137.86333333333	0
bin	137.89666666667	0
bin	137.93	0
bin	137.96333333333	0
bin	137.99666666667	0
bin	138.03	0
bin	138.06333333333	0
bin	138.09666666667	0
bin	138.13	0
bin	138.16333333333	0
bin	138.19666666667	0
bin	138.23	0
bin	138.26333333333	0
bin	138.29666666667	0
bin	138.33	1
bin	138.36333333333	0
bin	138.39666666667	0
bin	138.43	0
bin	138.46333333333	0
bin	138.49666666667	0
bin	138.53	0
bin	138.56333333333	0
bin	138.59666666667	0
bin	138.63	0
bin	138.66333333333	0
bin	138.69666666667	0
bin	138.73	0
bin	138.76333333333	0
bin	138.79666666667	0
bin	138.83	0
statistic RandomGeometricGraph.rgnv[26] 	arrivalPerc:histogram
field count 1
field mean 1
field stddev nan
field sum 1
field sqrsum 1
field min 1
field max 1
attr interpolationmode  none
attr source  count(arrival)
attr title  "arrival perc, histogram"
bin	-INF	0
bin	0	0
bin	1	1
bin	2	0
statistic RandomGeometricGraph.rgnv[27] 	arrivalTime:histogram
field count 1
field mean 182.244
field stddev nan
field sum 182.244
field sqrsum 33212.875536
field min 182.244
field max 182.244
attr interpolationmode  none
attr source  arrivalTime
attr title  "arrival time, histogram"
bin	-INF	0
bin	181.744	0
bin	181.77733333333	0
bin	181.81066666667	0
bin	181.844	0
bin	181.87733333333	0
bin	181.91066666667	0
bin	181.944	0
bin	181.97733333333	0
bin	182.01066666667	0
bin	182.044	0
bin	182.07733333333	0
bin	182.11066666667	0
bin	182.144	0
bin	182.17733333333	0
bin	182.21066666667	0
bin	182.244	1
bin	182.27733333333	0
bin	182.31066666667	0
bin	182.344	0
bin	182.37733333333	0
bin	182.41066666667	0
bin	182.444	0
bin	182.47733333333	0
bin	182.51066666667	0
bin	182.544	0
bin	182.57733333333	0
bin	182.61066666667	0
bin	182.644	0
bin	182.67733333333	0
bin	182.71066666667	0
bin	182.744	0
statistic RandomGeometricGraph.rgnv[27] 	arrivalPerc:histogram
field count 1
field mean 1
field stddev nan
field sum 1
field sqrsum 1
field min 1
field max 1
attr interpolationmode  none
attr source  count(arrival)
attr title  "arrival perc, histogram"
bin	-INF	0
bin	0	0
bin	1	1
bin	2	0
statistic RandomGeometricGraph.rgnv[28] 	arrivalTime:histogram
field count 1
field mean 204.485
field stddev nan
field sum 204.485
field sqrsum 41814.115225
field min 204.485
field max 204.485
attr interpolationmode  none
attr source  arrivalTime
attr title  "arrival time, histogram"
bin	-INF	0
bin	203.985	0
bin	204.01833333333	0
bin	204.05166666667	0
bin	204.085	0
bin	204.11833333333	0
bin	204.15166666667	0
bin	204.185	0
bin	204.21833333333	0
bin	204.25166666667	0
bin	204.285	0
bin	204.31833333333	0
bin	204.35166666667	0
bin	204.385	0
bin	204.41833333333	0
bin	204.45166666667	0
bin	204.485	1
bin	204.51833333333	0
bin	204.55166666667	0
bin	204.585	0
bin	204.61833333333	0
bin	204.65166666667	0
bin	204.685	0
bin	204.71833333333	0
bin	204.75166666667	0
bin	204.785	0
bin	204.81833333333	0
bin	204.85166666667	0
bin	204.885	0
bin	204.91833333333	0
bin	204.95166666667	0
bin	204.985	0
statistic RandomGeometricGraph.rgnv[28] 	arrivalPerc:histogram
field count 1
field mean 1
field stddev nan
field sum 1
field sqrsum 1
field min 1
field max 1
attr interpolationmode  none
attr source  count(arrival)
attr title  "arrival perc, histogram"
bin	-INF	0
bin	0	0
bin	1	1
bin	2	0
statistic RandomGeometricGraph.rgnv[29] 	arrivalTime:histogram
field count 1
field mean 155.561
field stddev nan
field sum 155.561
field sqrsum 24199.224721
field min 155.561
field max 155.561
attr interpolationmode  none
attr source  arrivalTime
attr title  "arrival time, histogram"
bin	-INF	0
bin	155.061	0
bin	155.09433333333	0
bin	155.12766666667	0
bin	155.161	0
bin	155.19433333333	0
bin	155.22766666667	0
bin	155.261	0
bin	155.29433333333	0
bin	155.32766666667	0
bin	155.361	0
bin	155.39433333333	0
bin	155.42766666667	0
bin	155.461	0
bin	155.49433333333	0
bin	155.52766666667	0
bin	155.561	1
bin	155.59433333333	0
bin	155.62766666667	0
bin	155.661	0
bin	155.69433333333	0
bin	155.72766666667	0
bin	155.761	0
bin	155.79433333333	0
bin	155.82766666667	0
bin	155.861	0
bin	155.89433333333	0
bin	155.92766666667	0
bin	155.961	0
bin	155.99433333333	0
bin	156.02766666667	0
bin	156.061	0
statistic RandomGeometricGraph.rgnv[29] 	arrivalPerc:histogram
field count 1
field mean 1
field stddev nan
field sum 1
field sqrsum 1
field min 1
field max 1
attr interpolationmode  none
attr source  count(arrival)
attr title  "arrival perc, histogram"
bin	-INF	0
bin	0	0
bin	1	1
bin	2	0
statistic RandomGeometricGraph.rgnv[30] 	arrivalTime:histogram
field count 1
field mean 223.37
field stddev nan
field sum 223.37
field sqrsum 49894.1569
field min 223.37
field max 223.37
attr interpolationmode  none
attr source  arrivalTime
attr title  "arrival time, histogram"
bin	-INF	0
bin	222.87	0
bin	222.90333333333	0
bin	222.93666666667	0
bin	222.97	0
bin	223.00333333333	0
bin	223.03666666667	0
bin	223.07	0
bin	223.10333333333	0
bin	223.13666666667	0
bin	223.17	0
bin	223.20333333333	0
bin	223.23666666667	0
bin	223.27	0
bin	223.30333333333	0
bin	223.33666666667	0
bin	223.37	1
bin	223.40333333333	0
bin	223.43666666667	0
bin	223.47	0
bin	223.50333333333	0
bin	223.53666666667	0
bin	223.57	0
bin	223.60333333333	0
bin	223.63666666667	0
bin	223.67	0
bin	223.70333333333	0
bin	223.73666666667	0
bin	223.77	0
bin	223.80333333333	0
bin	223.83666666667	0
bin	223.87	0
statistic RandomGeometricGraph.rgnv[30] 	arrivalPerc:histogram
field count 1
field mean 1
field stddev nan
field sum 1
field sqrsum 1
field min 1
field max 1
attr interpolationmode  none
attr source  count(arrival)
attr title  "arrival perc, histogram"
bin	-INF	0
bin	0	0
bin	1	1
bin	2	0
statistic RandomGeometricGraph.rgnv[31] 	arrivalTime:histogram
field count 1
field mean 89.426
field stddev nan
field sum 89.426
field sqrsum 7997.009476
field min 89.426
field max 89.426
attr interpolationmode  none
attr source  arrivalTime
attr title  "arrival time, histogram"
bin	-INF	0
bin	88.926	0
bin	88.959333333333	0
bin	88.992666666667	0
bin	89.026	0
bin	89.059333333333	0
bin	89.092666666667	0
bin	89.126	0
bin	89.159333333333	0
bin	89.192666666667	0
bin	89.226	0
bin	89.259333333333	0
bin	89.292666666667	0
bin	89.326	0
bin	89.359333333333	0
bin	89.392666666667	0
bin	89.426	1
bin	89.459333333333	0
bin	89.492666666667	0
bin	89.526	0
bin	89.559333333333	0
bin	89.592666666667	0
bin	89.626	0
bin	89.659333333333	0
bin	89.692666666667	0
bin	89.726	0
bin	89.759333333333	0
bin	89.792666666667	0
bin	89.826	0
bin	89.859333333333	0
bin	89.892666666667	0
bin	89.926	0
statistic RandomGeometricGraph.rgnv[31] 	arrivalPerc:histogram
field count 1
field mean 1
field stddev nan
field sum 1
field sqrsum 1
field min 1
field max 1
attr interpolationmode  none
attr source  count(arrival)
attr title  "arrival perc, histogram"
bin	-INF	0
bin	0	0
bin	1	1
bin	2	0
statistic RandomGeometricGraph.rgnv[32] 	arrivalTime:histogram
field count 1
field mean 155.561
field stddev nan
field sum 155.561
field sqrsum 24199.224721
field min 155.561
field max 155.561
attr interpolationmode  none
attr source  arrivalTime
attr title  "arrival time, histogram"
bin	-INF	0
bin	155.061	0
bin	155.09433333333	0
bin	155.12766666667	0
bin	155.161	0
bin	155.19433333333	0
bin	155.22766666667	0
bin	155.261	0
bin	155.29433333333	0
bin	155.32766666667	0
bin	155.361	0
bin	155.39433333333	0
bin	155.42766666667	0
bin	155.461	0
bin	155.49433333333	0
bin	155.52766666667	0
bin	155.561	1
bin	155.59433333333	0
bin	155.62766666667	0
bin	155.661	0
bin	155.69433333333	0
bin	155.72766666667	0
bin	155.761	0
bin	155.79433333333	0
bin	155.82766666667	0
bin	155.861	0
bin	155.89433333333	0
bin	155.92766666667	0
bin	155.961	0
bin	155.99433333333	0
bin	156.02766666667	0
bin	156.061	0
statistic RandomGeometricGraph.rgnv[32] 	arrivalPerc:histogram
field count 1
field mean 1
field stddev nan
field sum 1
field sqrsum 1
field min 1
field max 1
attr interpolationmode  none
attr source  count(arrival)
attr title  "arrival perc, histogram"
bin	-INF	0
bin	0	0
bin	1	1
bin	2	0
statistic RandomGeometricGraph.rgnv[33] 	arrivalTime:histogram
field count 1
field mean 121.089
field stddev nan
field sum 121.089
field sqrsum 14662.545921
field min 121.089
field max 121.089
attr interpolationmode  none
attr source  arrivalTime
attr title  "arrival time, histogram"
bin	-INF	0
bin	120.589	0
bin	120.62233333333	0
bin	120.65566666667	0
bin	120.689	0
bin	120.72233333333	0
bin	120.75566666667	0
bin	120.789	0
bin	120.82233333333	0
bin	120.85566666667	0
bin	120.889	0
bin	120.92233333333	0
bin	120.95566666667	0
bin	120.989	0
bin	121.02233333333	0
bin	121.05566666667	0
bin	121.089	1
bin	121.12233333333	0
bin	121.15566666667	0
bin	121.189	0
bin	121.22233333333	0
bin	121.25566666667	0
bin	121.289	0
bin	121.32233333333	0
bin	121.35566666667	0
bin	121.389	0
bin	121.42233333333	0
bin	121.45566666667	0
bin	121.489	0
bin	121.52233333333	0
bin	121.55566666667	0
bin	121.589	0
statistic RandomGeometricGraph.rgnv[33] 	arrivalPerc:histogram
field count 1
field mean 1
field stddev nan
field sum 1
field sqrsum 1
field min 1
field max 1
attr interpolationmode  none
attr source  count(arrival)
attr title  "arrival perc, histogram"
bin	-INF	0
bin	0	0
bin	1	1
bin	2	0
statistic RandomGeometricGraph.rgnv[34] 	arrivalTime:histogram
field count 1
field mean 96.647
field stddev nan
field sum 96.647
field sqrsum 9340.642609
field min 96.647
field max 96.647
attr interpolationmode  none
attr source  arrivalTime
attr title  "arrival time, histogram"
bin	-INF	0
bin	96.147	0
bin	96.180333333333	0
bin	96.213666666667	0
bin	96.247	0
bin	96.280333333333	0
bin	96.313666666667	0
bin	96.347	0
bin	96.380333333333	0
bin	96.413666666667	0
bin	96.447	0
bin	96.480333333333	0
bin	96.513666666667	0
bin	96.547	0
bin	96.580333333333	0
bin	96.613666666667	0
bin	96.647	1
bin	96.680333333333	0
bin	96.713666666667	0
bin	96.747	0
bin	96.780333333333	0
bin	96.813666666667	0
bin	96.847	0
bin	96.880333333333	0
bin	96.913666666667	0
bin	96.947	0
bin	96.980333333333	0
bin	97.013666666667	0
bin	97.047	0
bin	97.080333333333	0
bin	97.113666666667	0
bin	97.147	0
statistic RandomGeometricGraph.rgnv[34] 	arrivalPerc:histogram
field count 1
field mean 1
field stddev nan
field sum 1
field sqrsum 1
field min 1
field max 1
attr interpolationmode  none
attr source  count(arrival)
attr title  "arrival perc, histogram"
bin	-INF	0
bin	0	0
bin	1	1
bin	2	0
statistic RandomGeometricGraph.rgnv[35] 	arrivalTime:histogram
field count 1
field mean 178.35
field stddev nan
field sum 178.35
field sqrsum 31808.7225
field min 178.35
field max 178.35
attr interpolationmode  none
attr source  arrivalTime
attr title  "arrival time, histogram"
bin	-INF	0
bin	177.85	0
bin	177.88333333333	0
bin	177.91666666667	0
bin	177.95	0
bin	177.98333333333	0
bin	178.01666666667	0
bin	178.05	0
bin	178.08333333333	0
bin	178.11666666667	0
bin	178.15	0
bin	178.18333333333	0
bin	178.21666666667	0
bin	178.25	0
bin	178.28333333333	0
bin	178.31666666667	0
bin	178.35	1
bin	178.38333333333	0
bin	178.41666666667	0
bin	178.45	0
bin	178.48333333333	0
bin	178.51666666667	0
bin	178.55	0
bin	178.58333333333	0
bin	178.61666666667	0
bin	178.65	0
bin	178.68333333333	0
bin	178.71666666667	0
bin	178.75	0
bin	178.78333333333	0
bin	178.81666666667	0
bin	178.85	0
statistic RandomGeometricGraph.rgnv[35] 	arrivalPerc:histogram
field count 1
field mean 1
field stddev nan
field sum 1
field sqrsum 1
field min 1
field max 1
attr interpolationmode  none
attr source  count(arrival)
attr title  "arrival perc, histogram"
bin	-INF	0
bin	0	0
bin	1	1
bin	2	0
statistic RandomGeometricGraph.rgnv[36] 	arrivalTime:histogram
field count 1
field mean 138.34
field stddev nan
field sum 138.34
field sqrsum 19137.9556
field min 138.34
field max 138.34
attr interpolationmode  none
attr source  arrivalTime
attr title  "arrival time, histogram"
bin	-INF	0
bin	137.84	0
bin	137.87333333333	0
bin	137.90666666667	0
bin	137.94	0
bin	137.97333333333	0
bin	138.00666666667	0
bin	138.04	0
bin	138.07333333333	0
bin	138.10666666667	0
bin	138.14	0
bin	138.17333333333	0
bin	138.20666666667	0
bin	138.24	0
bin	138.27333333333	0
bin	138.30666666667	0
bin	138.34	1
bin	138.37333333333	0
bin	138.40666666667	0
bin	138.44	0
bin	138.47333333333	0
bin	138.50666666667	0
bin	138.54	0
bin	138.57333333333	0
bin	138.60666666667	0
bin	138.64	0
bin	138.67333333333	0
bin	138.70666666667	0
bin	138.74	0
bin	138.77333333333	0
bin	138.80666666667	0
bin	138.84	0
statistic RandomGeometricGraph.rgnv[36] 	arrivalPerc:histogram
field count 1
field mean 1
field stddev nan
field sum 1
field sqrsum 1
field min 1
field max 1
attr interpolationmode  none
attr source  count(arrival)
attr title  "arrival perc, histogram"
bin	-INF	0
bin	0	0
bin	1	1
bin	2	0
statistic RandomGeometricGraph.rgnv[37] 	arrivalTime:histogram
field count 1
field mean 173.33
field stddev nan
field sum 173.33
field sqrsum 30043.2889
field min 173.33
field max 173.33
attr interpolationmode  none
attr source  arrivalTime
attr title  "arrival time, histogram"
bin	-INF	0
bin	172.83	0
bin	172.86333333333	0
bin	172.89666666667	0
bin	172.93	0
bin	172.96333333333	0
bin	172.99666666667	0
bin	173.03	0
bin	173.06333333333	0
bin	173.09666666667	0
bin	173.13	0
bin	173.16333333333	0
bin	173.19666666667	0
bin	173.23	0
bin	173.26333333333	0
bin	173.29666666667	0
bin	173.33	1
bin	173.36333333333	0
bin	173.39666666667	0
bin	173.43	0
bin	173.46333333333	0
bin	173.49666666667	0
bin	173.53	0
bin	173.56333333333	0
bin	173.59666666667	0
bin	173.63	0
bin	173.66333333333	0
bin	173.69666666667	0
bin	173.73	0
bin	173.76333333333	0
bin	173.79666666667	0
bin	173.83	0
statistic RandomGeometricGraph.rgnv[37] 	arrivalPerc:histogram
field count 1
field mean 1
field stddev nan
field sum 1
field sqrsum 1
field min 1
field max 1
attr interpolationmode  none
attr source  count(arrival)
attr title  "arrival perc, histogram"
bin	-INF	0
bin	0	0
bin	1	1
bin	2	0
statistic RandomGeometricGraph.rgnv[38] 	arrivalTime:histogram
field count 1
field mean 185.561
field stddev nan
field sum 185.561
field sqrsum 34432.884721
field min 185.561
field max 185.561
attr interpolationmode  none
attr source  arrivalTime
attr title  "arrival time, histogram"
bin	-INF	0
bin	185.061	0
bin	185.09433333333	0
bin	185.12766666667	0
bin	185.161	0
bin	185.19433333333	0
bin	185.22766666667	0
bin	185.261	0
bin	185.29433333333	0
bin	185.32766666667	0
bin	185.361	0
bin	185.39433333333	0
bin	185.42766666667	0
bin	185.461	0
bin	185.49433333333	0
bin	185.52766666667	0
bin	185.561	1
bin	185.59433333333	0
bin	185.62766666667	0
bin	185.661	0
bin	185.69433333333	0
bin	185.72766666667	0
bin	185.761	0
bin	185.79433333333	0
bin	185.82766666667	0
bin	185.861	0
bin	185.89433333333	0
bin	185.92766666667	0
bin	185.961	0
bin	185.99433333333	0
bin	186.02766666667	0
bin	186.061	0
statistic RandomGeometricGraph.rgnv[38] 	arrivalPerc:histogram
field count 1
field mean 1
field stddev nan
field sum 1
field sqrsum 1
field min 1
field max 1
attr interpolationmode  none
attr source  count(arrival)
attr title  "arrival perc, histogram"
bin	-INF	0
bin	0	0
bin	1	1
bin	2	0
statistic RandomGeometricGraph.rgnv[39] 	arrivalTime:histogram
field count 1
field mean 25.472
field stddev nan
field sum 25.472
field sqrsum 648.822784
field min 25.472
field max 25.472
attr interpolationmode  none
attr source  arrivalTime
attr title  "arrival time, histogram"
bin	-INF	0
bin	24.972	0
bin	25.005333333333	0
bin	25.038666666667	0
bin	25.072	0
bin	25.105333333333	0
bin	25.138666666667	0
bin	25.172	0
bin	25.205333333333	0
bin	25.238666666667	0
bin	25.272	0
bin	25.305333333333	0
bin	25.338666666667	0
bin	25.372	0
bin	25.405333333333	0
bin	25.438666666667	0
bin	25.472	1
bin	25.505333333333	0
bin	25.538666666667	0
bin	25.572	0
bin	25.605333333333	0
bin	25.638666666667	0
bin	25.672	0
bin	25.705333333333	0
bin	25.738666666667	0
bin	25.772	0
bin	25.805333333333	0
bin	25.838666666667	0
bin	25.872	0
bin	25.905333333333	0
bin	25.938666666667	0
bin	25.972	0
statistic RandomGeometricGraph.rgnv[39] 	arrivalPerc:histogram
field count 1
field mean 1
field stddev nan
field sum 1
field sqrsum 1
field min 1
field max 1
attr interpolationmode  none
attr source  count(arrival)
attr title  "arrival perc, histogram"
bin	-INF	0
bin	0	0
bin	1	1
bin	2	0
statistic RandomGeometricGraph.rgnv[40] 	arrivalTime:histogram
field count 1
field mean 101.657
field stddev nan
field sum 101.657
field sqrsum 10334.145649
field min 101.657
field max 101.657
attr interpolationmode  none
attr source  arrivalTime
attr title  "arrival time, histogram"
bin	-INF	0
bin	101.157	0
bin	101.19033333333	0
bin	101.22366666667	0
bin	101.257	0
bin	101.29033333333	0
bin	101.32366666667	0
bin	101.357	0
bin	101.39033333333	0
bin	101.42366666667	0
bin	101.457	0
bin	101.49033333333	0
bin	101.52366666667	0
bin	101.557	0
bin	101.59033333333	0
bin	101.62366666667	0
bin	101.657	1
bin	101.69033333333	0
bin	101.72366666667	0
bin	101.757	0
bin	101.79033333333	0
bin	101.82366666667	0
bin	101.857	0
bin	101.89033333333	0
bin	101.92366666667	0
bin	101.957	0
bin	101.99033333333	0
bin	102.02366666667	0
bin	102.057	0
bin	102.09033333333	0
bin	102.12366666667	0
bin	102.157	0
statistic RandomGeometricGraph.rgnv[40] 	arrivalPerc:histogram
field count 1
field mean 1
field stddev nan
field sum 1
field sqrsum 1
field min 1
field max 1
attr interpolationmode  none
attr source  count(arrival)
attr title  "arrival perc, histogram"
bin	-INF	0
bin	0	0
bin	1	1
bin	2	0
statistic RandomGeometricGraph.rgnv[41] 	arrivalTime:histogram
field count 1
field mean 62.165
field stddev nan
field sum 62.165
field sqrsum 3864.487225
field min 62.165
field max 62.165
attr interpolationmode  none
attr source  arrivalTime
attr title  "arrival time, histogram"
bin	-INF	0
bin	61.665	0
bin	61.698333333333	0
bin	61.731666666667	0
bin	61.765	0
bin	61.798333333333	0
bin	61.831666666667	0
bin	61.865	0
bin	61.898333333333	0
bin	61.931666666667	0
bin	61.965	0
bin	61.998333333333	0
bin	62.031666666667	0
bin	62.065	0
bin	62.098333333333	0
bin	62.131666666667	0
bin	62.165	1
bin	62.198333333333	0
bin	62.231666666667	0
bin	62.265	0
bin	62.298333333333	0
bin	62.331666666667	0
bin	62.365	0
bin	62.398333333333	0
bin	62.431666666667	0
bin	62.465	0
bin	62.498333333333	0
bin	62.531666666667	0
bin	62.565	0
bin	62.598333333333	0
bin	62.631666666667	0
bin	62.665	0
statistic RandomGeometricGraph.rgnv[41] 	arrivalPerc:histogram
field count 1
field mean 1
field stddev nan
field sum 1
field sqrsum 1
field min 1
field max 1
attr interpolationmode  none
attr source  count(arrival)
attr title  "arrival perc, histogram"
bin	-INF	0
bin	0	0
bin	1	1
bin	2	0
statistic RandomGeometricGraph.rgnv[42] 	arrivalTime:histogram
field count 1
field mean 187.264
field stddev nan
field sum 187.264
field sqrsum 35067.805696
field min 187.264
field max 187.264
attr interpolationmode  none
attr source  arrivalTime
attr title  "arrival time, histogram"
bin	-INF	0
bin	186.764	0
bin	186.79733333333	0
bin	186.83066666667	0
bin	186.864	0
bin	186.89733333333	0
bin	186.93066666667	0
bin	186.964	0
bin	186.99733333333	0
bin	187.03066666667	0
bin	187.064	0
bin	187.09733333333	0
bin	187.13066666667	0
bin	187.164	0
bin	187.19733333333	0
bin	187.23066666667	0
bin	187.264	1
bin	187.29733333333	0
bin	187.33066666667	0
bin	187.364	0
bin	187.39733333333	0
bin	187.43066666667	0
bin	187.464	0
bin	187.49733333333	0
bin	187.53066666667	0
bin	187.564	0
bin	187.59733333333	0
bin	187.63066666667	0
bin	187.664	0
bin	187.69733333333	0
bin	187.73066666667	0
bin	187.764	0
statistic RandomGeometricGraph.rgnv[42] 	arrivalPerc:histogram
field count 1
field mean 1
field stddev nan
field sum 1
field sqrsum 1
field min 1
field max 1
attr interpolationmode  none
attr source  count(arrival)
attr title  "arrival perc, histogram"
bin	-INF	0
bin	0	0
bin	1	1
bin	2	0
statistic RandomGeometricGraph.rgnv[43] 	arrivalTime:histogram
field count 1
field mean 138.878
field stddev nan
field sum 138.878
field sqrsum 19287.098884
field min 138.878
field max 138.878
attr interpolationmode  none
attr source  arrivalTime
attr title  "arrival time, histogram"
bin	-INF	0
bin	138.378	0
bin	138.41133333333	0
bin	138.44466666667	0
bin	138.478	0
bin	138.51133333333	0
bin	138.54466666667	0
bin	138.578	0
bin	138.61133333333	0
bin	138.64466666667	0
bin	138.678	0
bin	138.71133333333	0
bin	138.74466666667	0
bin	138.778	0
bin	138.81133333333	0
bin	138.84466666667	0
bin	138.878	1
bin	138.91133333333	0
bin	138.94466666667	0
bin	138.978	0
bin	139.01133333333	0
bin	139.04466666667	0
bin	139.078	0
bin	139.11133333333	0
bin	139.14466666667	0
bin	139.178	0
bin	139.21133333333	0
bin	139.24466666667	0
bin	139.278	0
bin	139.31133333333	0
bin	139.34466666667	0
bin	139.378	0
statistic RandomGeometricGraph.rgnv[43] 	arrivalPerc:histogram
field count 1
field mean 1
field stddev nan
field sum 1
field sqrsum 1
field min 1
field max 1
attr interpolationmode  none
attr source  count(arrival)
attr title  "arrival perc, histogram"
bin	-INF	0
bin	0	0
bin	1	1
bin	2	0
statistic RandomGeometricGraph.rgnv[44] 	arrivalTime:histogram
field count 1
field mean 213.35
field stddev nan
field sum 213.35
field sqrsum 45518.2225
field min 213.35
field max 213.35
attr interpolationmode  none
attr source  arrivalTime
attr title  "arrival time, histogram"
bin	-INF	0
bin	212.85	0
bin	212.88333333333	0
bin	212.91666666667	0
bin	212.95	0
bin	212.98333333333	0
bin	213.01666666667	0
bin	213.05	0
bin	213.08333333333	0
bin	213.11666666667	0
bin	213.15	0
bin	213.18333333333	0
bin	213.21666666667	0
bin	213.25	0
bin	213.28333333333	0
bin	213.31666666667	0
bin	213.35	1
bin	213.38333333333	0
bin	213.41666666667	0
bin	213.45	0
bin	213.48333333333	0
bin	213.51666666667	0
bin	213.55	0
bin	213.58333333333	0
bin	213.61666666667	0
bin	213.65	0
bin	213.68333333333	0
bin	213.71666666667	0
bin	213.75	0
bin	213.78333333333	0
bin	213.81666666667	0
bin	213.85	0
statistic RandomGeometricGraph.rgnv[44] 	arrivalPerc:histogram
field count 1
field mean 1
field stddev nan
field sum 1
field sqrsum 1
field min 1
field max 1
attr interpolationmode  none
attr source  count(arrival)
attr title  "arrival perc, histogram"
bin	-INF	0
bin	0	0
bin	1	1
bin	2	0
statistic RandomGeometricGraph.rgnv[45] 	arrivalTime:histogram
field count 1
field mean 37.713
field stddev nan
field sum 37.713
field sqrsum 1422.270369
field min 37.713
field max 37.713
attr interpolationmode  none
attr source  arrivalTime
attr title  "arrival time, histogram"
bin	-INF	0
bin	37.213	0
bin	37.246333333333	0
bin	37.279666666667	0
bin	37.313	0
bin	37.346333333333	0
bin	37.379666666667	0
bin	37.413	0
bin	37.446333333333	0
bin	37.479666666667	0
bin	37.513	0
bin	37.546333333333	0
bin	37.579666666667	0
bin	37.613	0
bin	37.646333333333	0
bin	37.679666666667	0
bin	37.713	1
bin	37.746333333333	0
bin	37.779666666667	0
bin	37.813	0
bin	37.846333333333	0
bin	37.879666666667	0
bin	37.913	0
bin	37.946333333333	0
bin	37.979666666667	0
bin	38.013	0
bin	38.046333333333	0
bin	38.079666666667	0
bin	38.113	0
bin	38.146333333333	0
bin	38.179666666667	0
bin	38.213	0
statistic RandomGeometricGraph.rgnv[45] 	arrivalPerc:histogram
field count 1
field mean 1
field stddev nan
field sum 1
field sqrsum 1
field min 1
field max 1
attr interpolationmode  none
attr source  count(arrival)
attr title  "arrival perc, histogram"
bin	-INF	0
bin	0	0
bin	1	1
bin	2	0
statistic RandomGeometricGraph.rgnv[46] 	arrivalTime:histogram
field count 1
field mean 128.33
field stddev nan
field sum 128.33
field sqrsum 16468.5889
field min 128.33
field max 128.33
attr interpolationmode  none
attr source  arrivalTime
attr title  "arrival time, histogram"
bin	-INF	0
bin	127.83	0
bin	127.86333333333	0
bin	127.89666666667	0
bin	127.93	0
bin	127.96333333333	0
bin	127.99666666667	0
bin	128.03	0
bin	128.06333333333	0
bin	128.09666666667	0
bin	128.13	0
bin	128.16333333333	0
bin	128.19666666667	0
bin	128.23	0
bin	128.26333333333	0
bin	128.29666666667	0
bin	128.33	1
bin	128.36333333333	0
bin	128.39666666667	0
bin	128.43	0
bin	128.46333333333	0
bin	128.49666666667	0
bin	128.53	0
bin	128.56333333333	0
bin	128.59666666667	0
bin	128.63	0
bin	128.66333333333	0
bin	128.69666666667	0
bin	128.73	0
bin	128.76333333333	0
bin	128.79666666667	0
bin	128.83	0
statistic RandomGeometricGraph.rgnv[46] 	arrivalPerc:histogram
field count 1
field mean 1
field stddev nan
field sum 1
field sqrsum 1
field min 1
field max 1
attr interpolationmode  none
attr source  count(arrival)
attr title  "arrival perc, histogram"
bin	-INF	0
bin	0	0
bin	1	1
bin	2	0
statistic RandomGeometricGraph.rgnv[47] 	arrivalTime:histogram
field count 1
field mean 175.561
field stddev nan
field sum 175.561
field sqrsum 30821.664721
field min 175.561
field max 175.561
attr interpolationmode  none
attr source  arrivalTime
attr title  "arrival time, histogram"
bin	-INF	0
bin	175.061	0
bin	175.09433333333	0
bin	175.12766666667	0
bin	175.161	0
bin	175.19433333333	0
bin	175.22766666667	0
bin	175.261	0
bin	175.29433333333	0
bin	175.32766666667	0
bin	175.361	0
bin	175.39433333333	0
bin	175.42766666667	0
bin	175.461	0
bin	175.49433333333	0
bin	175.52766666667	0
bin	175.561	1
bin	175.59433333333	0
bin	175.62766666667	0
bin	175.661	0
bin	175.69433333333	0
bin	175.72766666667	0
bin	175.761	0
bin	175.79433333333	0
bin	175.82766666667	0
bin	175.861	0
bin	175.89433333333	0
bin	175.92766666667	0
bin	175.961	0
bin	175.99433333333	0
bin	176.02766666667	0
bin	176.061	0
statistic RandomGeometricGraph.rgnv[47] 	arrivalPerc:histogram
field count 1
field mean 1
field stddev nan
field sum 1
field sqrsum 1
field min 1
field max 1
attr interpolationmode  none
attr source  count(arrival)
attr title  "arrival perc, histogram"
bin	-INF	0
bin	0	0
bin	1	1
bin	2	0
statistic RandomGeometricGraph.rgnv[48] 	arrivalTime:histogram
field count 1
field mean 155.561
field stddev nan
field sum 155.561
field sqrsum 24199.224721
field min 155.561
field max 155.561
attr interpolationmode  none
attr source  arrivalTime
attr title  "arrival time, histogram"
bin	-INF	0
bin	155.061	0
bin	155.09433333333	0
bin	155.12766666667	0
bin	155.161	0
bin	155.19433333333	0
bin	155.22766666667	0
bin	155.261	0
bin	155.29433333333	0
bin	155.32766666667	0
bin	155.361	0
bin	155.39433333333	0
bin	155.42766666667	0
bin	155.461	0
bin	155.49433333333	0
bin	155.52766666667	0
bin	155.561	1
bin	155.59433333333	0
bin	155.62766666667	0
bin	155.661	0
bin	155.69433333333	0
bin	155.72766666667	0
bin	155.761	0
bin	155.79433333333	0
bin	155.82766666667	0
bin	155.861	0
bin	155.89433333333	0
bin	155.92766666667	0
bin	155.961	0
bin	155.99433333333	0
bin	156.02766666667	0
bin	156.061	0
statistic RandomGeometricGraph.rgnv[48] 	arrivalPerc:histogram
field count 1
field mean 1
field stddev nan
field sum 1
field sqrsum 1
field min 1
field max 1
attr interpolationmode  none
attr source  count(arrival)
attr title  "arrival perc, histogram"
bin	-INF	0
bin	0	0
bin	1	1
bin	2	0
statistic RandomGeometricGraph.rgnv[49] 	arrivalTime:histogram
field count 1
field mean 118.868
field stddev nan
field sum 118.868
field sqrsum 14129.601424
field min 118.868
field max 118.868
attr interpolationmode  none
attr source  arrivalTime
attr title  "arrival time, histogram"
bin	-INF	0
bin	118.368	0
bin	118.40133333333	0
bin	118.43466666667	0
bin	118.468	0
bin	118.50133333333	0
bin	118.53466666667	0
bin	118.568	0
bin	118.60133333333	0
bin	118.63466666667	0
bin	118.668	0
bin	118.70133333333	0
bin	118.73466666667	0
bin	118.768	0
bin	118.80133333333	0
bin	118.83466666667	0
bin	118.868	1
bin	118.90133333333	0
bin	118.93466666667	0
bin	118.968	0
bin	119.00133333333	0
bin	119.03466666667	0
bin	119.068	0
bin	119.10133333333	0
bin	119.13466666667	0
bin	119.168	0
bin	119.20133333333	0
bin	119.23466666667	0
bin	119.268	0
bin	119.30133333333	0
bin	119.33466666667	0
bin	119.368	0
statistic RandomGeometricGraph.rgnv[49] 	arrivalPerc:histogram
field count 1
field mean 1
field stddev nan
field sum 1
field sqrsum 1
field min 1
field max 1
attr interpolationmode  none
attr source  count(arrival)
attr title  "arrival perc, histogram"
bin	-INF	0
bin	0	0
bin	1	1
bin	2	0
statistic RandomGeometricGraph.rgnv[50] 	arrivalTime:histogram
field count 1
field mean 222.792
field stddev nan
field sum 222.792
field sqrsum 49636.275264
field min 222.792
field max 222.792
attr interpolationmode  none
attr source  arrivalTime
attr title  "arrival time, histogram"
bin	-INF	0
bin	222.292	0
bin	222.32533333333	0
bin	222.35866666667	0
bin	222.392	0
bin	222.42533333333	0
bin	222.45866666667	0
bin	222.492	0
bin	222.52533333333	0
bin	222.55866666667	0
bin	222.592	0
bin	222.62533333333	0
bin	222.65866666667	0
bin	222.692	0
bin	222.72533333333	0
bin	222.75866666667	0
bin	222.792	1
bin	222.82533333333	0
bin	222.85866666667	0
bin	222.892	0
bin	222.92533333333	0
bin	222.95866666667	0
bin	222.992	0
bin	223.02533333333	0
bin	223.05866666667	0
bin	223.092	0
bin	223.12533333333	0
bin	223.15866666667	0
bin	223.192	0
bin	223.22533333333	0
bin	223.25866666667	0
bin	223.292	0
statistic RandomGeometricGraph.rgnv[50] 	arrivalPerc:histogram
field count 1
field mean 1
field stddev nan
field sum 1
field sqrsum 1
field min 1
field max 1
attr interpolationmode  none
attr source  count(arrival)
attr title  "arrival perc, histogram"
bin	-INF	0
bin	0	0
bin	1	1
bin	2	0
statistic RandomGeometricGraph.rgnv[51] 	arrivalTime:histogram
field count 1
field mean 175.043
field stddev nan
field sum 175.043
field sqrsum 30640.051849
field min 175.043
field max 175.043
attr interpolationmode  none
attr source  arrivalTime
attr title  "arrival time, histogram"
bin	-INF	0
bin	174.543	0
bin	174.57633333333	0
bin	174.60966666667	0
bin	174.643	0
bin	174.67633333333	0
bin	174.70966666667	0
bin	174.743	0
bin	174.77633333333	0
bin	174.80966666667	0
bin	174.843	0
bin	174.87633333333	0
bin	174.90966666667	0
bin	174.943	0
bin	174.97633333333	0
bin	175.00966666667	0
bin	175.043	1
bin	175.07633333333	0
bin	175.10966666667	0
bin	175.143	0
bin	175.17633333333	0
bin	175.20966666667	0
bin	175.243	0
bin	175.27633333333	0
bin	175.30966666667	0
bin	175.343	0
bin	175.37633333333	0
bin	175.40966666667	0
bin	175.443	0
bin	175.47633333333	0
bin	175.50966666667	0
bin	175.543	0
statistic RandomGeometricGraph.rgnv[51] 	arrivalPerc:histogram
field count 1
field mean 1
field stddev nan
field sum 1
field sqrsum 1
field min 1
field max 1
attr interpolationmode  none
attr source  count(arrival)
attr title  "arrival perc, histogram"
bin	-INF	0
bin	0	0
bin	1	1
bin	2	0
statistic RandomGeometricGraph.rgnv[52] 	arrivalTime:histogram
field count 1
field mean 79.396
field stddev nan
field sum 79.396
field sqrsum 6303.724816
field min 79.396
field max 79.396
attr interpolationmode  none
attr source  arrivalTime
attr title  "arrival time, histogram"
bin	-INF	0
bin	78.896	0
bin	78.929333333333	0
bin	78.962666666667	0
bin	78.996	0
bin	79.029333333333	0
bin	79.062666666667	0
bin	79.096	0
bin	79.129333333333	0
bin	79.162666666667	0
bin	79.196	0
bin	79.229333333333	0
bin	79.262666666667	0
bin	79.296	0
bin	79.329333333333	0
bin	79.362666666667	0
bin	79.396	1
bin	79.429333333333	0
bin	79.462666666667	0
bin	79.496	0
bin	79.529333333333	0
bin	79.562666666667	0
bin	79.596	0
bin	79.629333333333	0
bin	79.662666666667	0
bin	79.696	0
bin	79.729333333333	0
bin	79.762666666667	0
bin	79.796	0
bin	79.829333333333	0
bin	79.862666666667	0
bin	79.896	0
statistic RandomGeometricGraph.rgnv[52] 	arrivalPerc:histogram
field count 1
field mean 1
field stddev nan
field sum 1
field sqrsum 1
field min 1
field max 1
attr interpolationmode  none
attr source  count(arrival)
attr title  "arrival perc, histogram"
bin	-INF	0
bin	0	0
bin	1	1
bin	2	0
statistic RandomGeometricGraph.rgnv[53] 	arrivalTime:histogram
field count 1
field mean 108.868
field stddev nan
field sum 108.868
field sqrsum 11852.241424
field min 108.868
field max 108.868
attr interpolationmode  none
attr source  arrivalTime
attr title  "arrival time, histogram"
bin	-INF	0
bin	108.368	0
bin	108.40133333333	0
bin	108.43466666667	0
bin	108.468	0
bin	108.50133333333	0
bin	108.53466666667	0
bin	108.568	0
bin	108.60133333333	0
bin	108.63466666667	0
bin	108.668	0
bin	108.70133333333	0
bin	108.73466666667	0
bin	108.768	0
bin	108.80133333333	0
bin	108.83466666667	0
bin	108.868	1
bin	108.90133333333	0
bin	108.93466666667	0
bin	108.968	0
bin	109.00133333333	0
bin	109.03466666667	0
bin	109.068	0
bin	109.10133333333	0
bin	109.13466666667	0
bin	109.168	0
bin	109.20133333333	0
bin	109.23466666667	0
bin	109.268	0
bin	109.30133333333	0
bin	109.33466666667	0
bin	109.368	0
statistic RandomGeometricGraph.rgnv[53] 	arrivalPerc:histogram
field count 1
field mean 1
field stddev nan
field sum 1
field sqrsum 1
field min 1
field max 1
attr interpolationmode  none
attr source  count(arrival)
attr title  "arrival perc, histogram"
bin	-INF	0
bin	0	0
bin	1	1
bin	2	0
statistic RandomGeometricGraph.rgnv[54] 	arrivalTime:histogram
field count 1
field mean 185.013
field stddev nan
field sum 185.013
field sqrsum 34229.810169
field min 185.013
field max 185.013
attr interpolationmode  none
attr source  arrivalTime
attr title  "arrival time, histogram"
bin	-INF	0
bin	184.513	0
bin	184.54633333333	0
bin	184.57966666667	0
bin	184.613	0
bin	184.64633333333	0
bin	184.67966666667	0
bin	184.713	0
bin	184.74633333333	0
bin	184.77966666667	0
bin	184.813	0
bin	184.84633333333	0
bin	184.87966666667	0
bin	184.913	0
bin	184.94633333333	0
bin	184.97966666667	0
bin	185.013	1
bin	185.04633333333	0
bin	185.07966666667	0
bin	185.113	0
bin	185.14633333333	0
bin	185.17966666667	0
bin	185.213	0
bin	185.24633333333	0
bin	185.27966666667	0
bin	185.313	0
bin	185.34633333333	0
bin	185.37966666667	0
bin	185.413	0
bin	185.44633333333	0
bin	185.47966666667	0
bin	185.513	0
statistic RandomGeometricGraph.rgnv[54] 	arrivalPerc:histogram
field count 1
field mean 1
field stddev nan
field sum 1
field sqrsum 1
field min 1
field max 1
attr interpolationmode  none
attr source  count(arrival)
attr title  "arrival perc, histogram"
bin	-INF	0
bin	0	0
bin	1	1
bin	2	0
statistic RandomGeometricGraph.rgnv[55] 	arrivalTime:histogram
field count 1
field mean 131.109
field stddev nan
field sum 131.109
field sqrsum 17189.569881
field min 131.109
field max 131.109
attr interpolationmode  none
attr source  arrivalTime
attr title  "arrival time, histogram"
bin	-INF	0
bin	130.609	0
bin	130.64233333333	0
bin	130.67566666667	0
bin	130.709	0
bin	130.74233333333	0
bin	130.77566666667	0
bin	130.809	0
bin	130.84233333333	0
bin	130.87566666667	0
bin	130.909	0
bin	130.94233333333	0
bin	130.97566666667	0
bin	131.009	0
bin	131.04233333333	0
bin	131.07566666667	0
bin	131.109	1
bin	131.14233333333	0
bin	131.17566666667	0
bin	131.209	0
bin	131.24233333333	0
bin	131.27566666667	0
bin	131.309	0
bin	131.34233333333	0
bin	131.37566666667	0
bin	131.409	0
bin	131.44233333333	0
bin	131.47566666667	0
bin	131.509	0
bin	131.54233333333	0
bin	131.57566666667	0
bin	131.609	0
statistic RandomGeometricGraph.rgnv[55] 	arrivalPerc:histogram
field count 1
field mean 1
field stddev nan
field sum 1
field sqrsum 1
field min 1
field max 1
attr interpolationmode  none
attr source  count(arrival)
attr title  "arrival perc, histogram"
bin	-INF	0
bin	0	0
bin	1	1
bin	2	0
statistic RandomGeometricGraph.rgnv[56] 	arrivalTime:histogram
field count 1
field mean 91.627
field stddev nan
field sum 91.627
field sqrsum 8395.507129
field min 91.627
field max 91.627
attr interpolationmode  none
attr source  arrivalTime
attr title  "arrival time, histogram"
bin	-INF	0
bin	91.127	0
bin	91.160333333333	0
bin	91.193666666667	0
bin	91.227	0
bin	91.260333333333	0
bin	91.293666666667	0
bin	91.327	0
bin	91.360333333333	0
bin	91.393666666667	0
bin	91.427	0
bin	91.460333333333	0
bin	91.493666666667	0
bin	91.527	0
bin	91.560333333333	0
bin	91.593666666667	0
bin	91.627	1
bin	91.660333333333	0
bin	91.693666666667	0
bin	91.727	0
bin	91.760333333333	0
bin	91.793666666667	0
bin	91.827	0
bin	91.860333333333	0
bin	91.893666666667	0
bin	91.927	0
bin	91.960333333333	0
bin	91.993666666667	0
bin	92.027	0
bin	92.060333333333	0
bin	92.093666666667	0
bin	92.127	0
statistic RandomGeometricGraph.rgnv[56] 	arrivalPerc:histogram
field count 1
field mean 1
field stddev nan
field sum 1
field sqrsum 1
field min 1
field max 1
attr interpolationmode  none
attr source  count(arrival)
attr title  "arrival perc, histogram"
bin	-INF	0
bin	0	0
bin	1	1
bin	2	0
statistic RandomGeometricGraph.rgnv[57] 	arrivalTime:histogram
field count 1
field mean 101.637
field stddev nan
field sum 101.637
field sqrsum 10330.079769
field min 101.637
field max 101.637
attr interpolationmode  none
attr source  arrivalTime
attr title  "arrival time, histogram"
bin	-INF	0
bin	101.137	0
bin	101.17033333333	0
bin	101.20366666667	0
bin	101.237	0
bin	101.27033333333	0
bin	101.30366666667	0
bin	101.337	0
bin	101.37033333333	0
bin	101.40366666667	0
bin	101.437	0
bin	101.47033333333	0
bin	101.50366666667	0
bin	101.537	0
bin	101.57033333333	0
bin	101.60366666667	0
bin	101.637	1
bin	101.67033333333	0
bin	101.70366666667	0
bin	101.737	0
bin	101.77033333333	0
bin	101.80366666667	0
bin	101.837	0
bin	101.87033333333	0
bin	101.90366666667	0
bin	101.937	0
bin	101.97033333333	0
bin	102.00366666667	0
bin	102.037	0
bin	102.07033333333	0
bin	102.10366666667	0
bin	102.137	0
statistic RandomGeometricGraph.rgnv[57] 	arrivalPerc:histogram
field count 1
field mean 1
field stddev nan
field sum 1
field sqrsum 1
field min 1
field max 1
attr interpolationmode  none
attr source  count(arrival)
attr title  "arrival perc, histogram"
bin	-INF	0
bin	0	0
bin	1	1
bin	2	0
statistic RandomGeometricGraph.rgnv[58] 	arrivalTime:histogram
field count 1
field mean 84.406
field stddev nan
field sum 84.406
field sqrsum 7124.372836
field min 84.406
field max 84.406
attr interpolationmode  none
attr source  arrivalTime
attr title  "arrival time, histogram"
bin	-INF	0
bin	83.906	0
bin	83.939333333333	0
bin	83.972666666667	0
bin	84.006	0
bin	84.039333333333	0
bin	84.072666666667	0
bin	84.106	0
bin	84.139333333333	0
bin	84.172666666667	0
bin	84.206	0
bin	84.239333333333	0
bin	84.272666666667	0
bin	84.306	0
bin	84.339333333333	0
bin	84.372666666667	0
bin	84.406	1
bin	84.439333333333	0
bin	84.472666666667	0
bin	84.506	0
bin	84.539333333333	0
bin	84.572666666667	0
bin	84.606	0
bin	84.639333333333	0
bin	84.672666666667	0
bin	84.706	0
bin	84.739333333333	0
bin	84.772666666667	0
bin	84.806	0
bin	84.839333333333	0
bin	84.872666666667	0
bin	84.906	0
statistic RandomGeometricGraph.rgnv[58] 	arrivalPerc:histogram
field count 1
field mean 1
field stddev nan
field sum 1
field sqrsum 1
field min 1
field max 1
attr interpolationmode  none
attr source  count(arrival)
attr title  "arrival perc, histogram"
bin	-INF	0
bin	0	0
bin	1	1
bin	2	0
statistic RandomGeometricGraph.rgnv[59] 	arrivalTime:histogram
field count 1
field mean 113.878
field stddev nan
field sum 113.878
field sqrsum 12968.198884
field min 113.878
field max 113.878
attr interpolationmode  none
attr source  arrivalTime
attr title  "arrival time, histogram"
bin	-INF	0
bin	113.378	0
bin	113.41133333333	0
bin	113.44466666667	0
bin	113.478	0
bin	113.51133333333	0
bin	113.54466666667	0
bin	113.578	0
bin	113.61133333333	0
bin	113.64466666667	0
bin	113.678	0
bin	113.71133333333	0
bin	113.74466666667	0
bin	113.778	0
bin	113.81133333333	0
bin	113.84466666667	0
bin	113.878	1
bin	113.91133333333	0
bin	113.94466666667	0
bin	113.978	0
bin	114.01133333333	0
bin	114.04466666667	0
bin	114.078	0
bin	114.11133333333	0
bin	114.14466666667	0
bin	114.178	0
bin	114.21133333333	0
bin	114.24466666667	0
bin	114.278	0
bin	114.31133333333	0
bin	114.34466666667	0
bin	114.378	0
statistic RandomGeometricGraph.rgnv[59] 	arrivalPerc:histogram
field count 1
field mean 1
field stddev nan
field sum 1
field sqrsum 1
field min 1
field max 1
attr interpolationmode  none
attr source  count(arrival)
attr title  "arrival perc, histogram"
bin	-INF	0
bin	0	0
bin	1	1
bin	2	0
statistic RandomGeometricGraph.rgnv[60] 	arrivalTime:histogram
field count 1
field mean 215.023
field stddev nan
field sum 215.023
field sqrsum 46234.890529
field min 215.023
field max 215.023
attr interpolationmode  none
attr source  arrivalTime
attr title  "arrival time, histogram"
bin	-INF	0
bin	214.523	0
bin	214.55633333333	0
bin	214.58966666667	0
bin	214.623	0
bin	214.65633333333	0
bin	214.68966666667	0
bin	214.723	0
bin	214.75633333333	0
bin	214.78966666667	0
bin	214.823	0
bin	214.85633333333	0
bin	214.88966666667	0
bin	214.923	0
bin	214.95633333333	0
bin	214.98966666667	0
bin	215.023	1
bin	215.05633333333	0
bin	215.08966666667	0
bin	215.123	0
bin	215.15633333333	0
bin	215.18966666667	0
bin	215.223	0
bin	215.25633333333	0
bin	215.28966666667	0
bin	215.323	0
bin	215.35633333333	0
bin	215.38966666667	0
bin	215.423	0
bin	215.45633333333	0
bin	215.48966666667	0
bin	215.523	0
statistic RandomGeometricGraph.rgnv[60] 	arrivalPerc:histogram
field count 1
field mean 1
field stddev nan
field sum 1
field sqrsum 1
field min 1
field max 1
attr interpolationmode  none
attr source  count(arrival)
attr title  "arrival perc, histogram"
bin	-INF	0
bin	0	0
bin	1	1
bin	2	0
statistic RandomGeometricGraph.rgnv[61] 	arrivalTime:histogram
field count 1
field mean 162.792
field stddev nan
field sum 162.792
field sqrsum 26501.235264
field min 162.792
field max 162.792
attr interpolationmode  none
attr source  arrivalTime
attr title  "arrival time, histogram"
bin	-INF	0
bin	162.292	0
bin	162.32533333333	0
bin	162.35866666667	0
bin	162.392	0
bin	162.42533333333	0
bin	162.45866666667	0
bin	162.492	0
bin	162.52533333333	0
bin	162.55866666667	0
bin	162.592	0
bin	162.62533333333	0
bin	162.65866666667	0
bin	162.692	0
bin	162.72533333333	0
bin	162.75866666667	0
bin	162.792	1
bin	162.82533333333	0
bin	162.85866666667	0
bin	162.892	0
bin	162.92533333333	0
bin	162.95866666667	0
bin	162.992	0
bin	163.02533333333	0
bin	163.05866666667	0
bin	163.092	0
bin	163.12533333333	0
bin	163.15866666667	0
bin	163.192	0
bin	163.22533333333	0
bin	163.25866666667	0
bin	163.292	0
statistic RandomGeometricGraph.rgnv[61] 	arrivalPerc:histogram
field count 1
field mean 1
field stddev nan
field sum 1
field sqrsum 1
field min 1
field max 1
attr interpolationmode  none
attr source  count(arrival)
attr title  "arrival perc, histogram"
bin	-INF	0
bin	0	0
bin	1	1
bin	2	0
statistic RandomGeometricGraph.rgnv[62] 	arrivalTime:histogram
field count 1
field mean 138.888
field stddev nan
field sum 138.888
field sqrsum 19289.876544
field min 138.888
field max 138.888
attr interpolationmode  none
attr source  arrivalTime
attr title  "arrival time, histogram"
bin	-INF	0
bin	138.388	0
bin	138.42133333333	0
bin	138.45466666667	0
bin	138.488	0
bin	138.52133333333	0
bin	138.55466666667	0
bin	138.588	0
bin	138.62133333333	0
bin	138.65466666667	0
bin	138.688	0
bin	138.72133333333	0
bin	138.75466666667	0
bin	138.788	0
bin	138.82133333333	0
bin	138.85466666667	0
bin	138.888	1
bin	138.92133333333	0
bin	138.95466666667	0
bin	138.988	0
bin	139.02133333333	0
bin	139.05466666667	0
bin	139.088	0
bin	139.12133333333	0
bin	139.15466666667	0
bin	139.188	0
bin	139.22133333333	0
bin	139.25466666667	0
bin	139.288	0
bin	139.32133333333	0
bin	139.35466666667	0
bin	139.388	0
statistic RandomGeometricGraph.rgnv[62] 	arrivalPerc:histogram
field count 1
field mean 1
field stddev nan
field sum 1
field sqrsum 1
field min 1
field max 1
attr interpolationmode  none
attr source  count(arrival)
attr title  "arrival perc, histogram"
bin	-INF	0
bin	0	0
bin	1	1
bin	2	0
statistic RandomGeometricGraph.rgnv[63] 	arrivalTime:histogram
field count 1
field mean 106.657
field stddev nan
field sum 106.657
field sqrsum 11375.715649
field min 106.657
field max 106.657
attr interpolationmode  none
attr source  arrivalTime
attr title  "arrival time, histogram"
bin	-INF	0
bin	106.157	0
bin	106.19033333333	0
bin	106.22366666667	0
bin	106.257	0
bin	106.29033333333	0
bin	106.32366666667	0
bin	106.357	0
bin	106.39033333333	0
bin	106.42366666667	0
bin	106.457	0
bin	106.49033333333	0
bin	106.52366666667	0
bin	106.557	0
bin	106.59033333333	0
bin	106.62366666667	0
bin	106.657	1
bin	106.69033333333	0
bin	106.72366666667	0
bin	106.757	0
bin	106.79033333333	0
bin	106.82366666667	0
bin	106.857	0
bin	106.89033333333	0
bin	106.92366666667	0
bin	106.957	0
bin	106.99033333333	0
bin	107.02366666667	0
bin	107.057	0
bin	107.09033333333	0
bin	107.12366666667	0
bin	107.157	0
statistic RandomGeometricGraph.rgnv[63] 	arrivalPerc:histogram
field count 1
field mean 1
field stddev nan
field sum 1
field sqrsum 1
field min 1
field max 1
attr interpolationmode  none
attr source  count(arrival)
attr title  "arrival perc, histogram"
bin	-INF	0
bin	0	0
bin	1	1
bin	2	0
statistic RandomGeometricGraph.rgnv[64] 	arrivalTime:histogram
field count 1
field mean 220.023
field stddev nan
field sum 220.023
field sqrsum 48410.120529
field min 220.023
field max 220.023
attr interpolationmode  none
attr source  arrivalTime
attr title  "arrival time, histogram"
bin	-INF	0
bin	219.523	0
bin	219.55633333333	0
bin	219.58966666667	0
bin	219.623	0
bin	219.65633333333	0
bin	219.68966666667	0
bin	219.723	0
bin	219.75633333333	0
bin	219.78966666667	0
bin	219.823	0
bin	219.85633333333	0
bin	219.88966666667	0
bin	219.923	0
bin	219.95633333333	0
bin	219.98966666667	0
bin	220.023	1
bin	220.05633333333	0
bin	220.08966666667	0
bin	220.123	0
bin	220.15633333333	0
bin	220.18966666667	0
bin	220.223	0
bin	220.25633333333	0
bin	220.28966666667	0
bin	220.323	0
bin	220.35633333333	0
bin	220.38966666667	0
bin	220.423	0
bin	220.45633333333	0
bin	220.48966666667	0
bin	220.523	0
statistic RandomGeometricGraph.rgnv[64] 	arrivalPerc:histogram
field count 1
field mean 1
field stddev nan
field sum 1
field sqrsum 1
field min 1
field max 1
attr interpolationmode  none
attr source  count(arrival)
attr title  "arrival perc, histogram"
bin	-INF	0
bin	0	0
bin	1	1
bin	2	0
statistic RandomGeometricGraph.rgnv[65] 	arrivalTime:histogram
field count 1
field mean 123.32
field stddev nan
field sum 123.32
field sqrsum 15207.8224
field min 123.32
field max 123.32
attr interpolationmode  none
attr source  arrivalTime
attr title  "arrival time, histogram"
bin	-INF	0
bin	122.82	0
bin	122.85333333333	0
bin	122.88666666667	0
bin	122.92	0
bin	122.95333333333	0
bin	122.98666666667	0
bin	123.02	0
bin	123.05333333333	0
bin	123.08666666667	0
bin	123.12	0
bin	123.15333333333	0
bin	123.18666666667	0
bin	123.22	0
bin	123.25333333333	0
bin	123.28666666667	0
bin	123.32	1
bin	123.35333333333	0
bin	123.38666666667	0
bin	123.42	0
bin	123.45333333333	0
bin	123.48666666667	0
bin	123.52	0
bin	123.55333333333	0
bin	123.58666666667	0
bin	123.62	0
bin	123.65333333333	0
bin	123.68666666667	0
bin	123.72	0
bin	123.75333333333	0
bin	123.78666666667	0
bin	123.82	0
statistic RandomGeometricGraph.rgnv[65] 	arrivalPerc:histogram
field count 1
field mean 1
field stddev nan
field sum 1
field sqrsum 1
field min 1
field max 1
attr interpolationmode  none
attr source  count(arrival)
attr title  "arrival perc, histogram"
bin	-INF	0
bin	0	0
bin	1	1
bin	2	0
statistic RandomGeometricGraph.rgnv[66] 	arrivalTime:histogram
field count 1
field mean 170.033
field stddev nan
field sum 170.033
field sqrsum 28911.221089
field min 170.033
field max 170.033
attr interpolationmode  none
attr source  arrivalTime
attr title  "arrival time, histogram"
bin	-INF	0
bin	169.533	0
bin	169.56633333333	0
bin	169.59966666667	0
bin	169.633	0
bin	169.66633333333	0
bin	169.69966666667	0
bin	169.733	0
bin	169.76633333333	0
bin	169.79966666667	0
bin	169.833	0
bin	169.86633333333	0
bin	169.89966666667	0
bin	169.933	0
bin	169.96633333333	0
bin	169.99966666667	0
bin	170.033	1
bin	170.06633333333	0
bin	170.09966666667	0
bin	170.133	0
bin	170.16633333333	0
bin	170.19966666667	0
bin	170.233	0
bin	170.26633333333	0
bin	170.29966666667	0
bin	170.333	0
bin	170.36633333333	0
bin	170.39966666667	0
bin	170.433	0
bin	170.46633333333	0
bin	170.49966666667	0
bin	170.533	0
statistic RandomGeometricGraph.rgnv[66] 	arrivalPerc:histogram
[...]
bin	1	1
bin	2	0
statistic RandomGeometricGraph.rgnv[483] 	arrivalTime:histogram
field count 1
field mean 151.109
field stddev nan
field sum 151.109
field sqrsum 22833.929881
field min 151.109
field max 151.109
attr interpolationmode  none
attr source  arrivalTime
attr title  "arrival time, histogram"
bin	-INF	0
bin	150.609	0
bin	150.64233333333	0
bin	150.67566666667	0
bin	150.709	0
bin	150.74233333333	0
bin	150.77566666667	0
bin	150.809	0
bin	150.84233333333	0
bin	150.87566666667	0
bin	150.909	0
bin	150.94233333333	0
bin	150.97566666667	0
bin	151.009	0
bin	151.04233333333	0
bin	151.07566666667	0
bin	151.109	1
bin	151.14233333333	0
bin	151.17566666667	0
bin	151.209	0
bin	151.24233333333	0
bin	151.27566666667	0
bin	151.309	0
bin	151.34233333333	0
bin	151.37566666667	0
bin	151.409	0
bin	151.44233333333	0
bin	151.47566666667	0
bin	151.509	0
bin	151.54233333333	0
bin	151.57566666667	0
bin	151.609	0
statistic RandomGeometricGraph.rgnv[483] 	arrivalPerc:histogram
field count 1
field mean 1
field stddev nan
field sum 1
field sqrsum 1
field min 1
field max 1
attr interpolationmode  none
attr source  count(arrival)
attr title  "arrival perc, histogram"
bin	-INF	0
bin	0	0
bin	1	1
bin	2	0
statistic RandomGeometricGraph.rgnv[484] 	arrivalTime:histogram
field count 1
field mean 131.099
field stddev nan
field sum 131.099
field sqrsum 17186.947801
field min 131.099
field max 131.099
attr interpolationmode  none
attr source  arrivalTime
attr title  "arrival time, histogram"
bin	-INF	0
bin	130.599	0
bin	130.63233333333	0
bin	130.66566666667	0
bin	130.699	0
bin	130.73233333333	0
bin	130.76566666667	0
bin	130.799	0
bin	130.83233333333	0
bin	130.86566666667	0
bin	130.899	0
bin	130.93233333333	0
bin	130.96566666667	0
bin	130.999	0
bin	131.03233333333	0
bin	131.06566666667	0
bin	131.099	1
bin	131.13233333333	0
bin	131.16566666667	0
bin	131.199	0
bin	131.23233333333	0
bin	131.26566666667	0
bin	131.299	0
bin	131.33233333333	0
bin	131.36566666667	0
bin	131.399	0
bin	131.43233333333	0
bin	131.46566666667	0
bin	131.499	0
bin	131.53233333333	0
bin	131.56566666667	0
bin	131.599	0
statistic RandomGeometricGraph.rgnv[484] 	arrivalPerc:histogram
field count 1
field mean 1
field stddev nan
field sum 1
field sqrsum 1
field min 1
field max 1
attr interpolationmode  none
attr source  count(arrival)
attr title  "arrival perc, histogram"
bin	-INF	0
bin	0	0
bin	1	1
bin	2	0
statistic RandomGeometricGraph.rgnv[485] 	arrivalTime:histogram
field count 1
field mean 84.416
field stddev nan
field sum 84.416
field sqrsum 7126.061056
field min 84.416
field max 84.416
attr interpolationmode  none
attr source  arrivalTime
attr title  "arrival time, histogram"
bin	-INF	0
bin	83.916	0
bin	83.949333333333	0
bin	83.982666666667	0
bin	84.016	0
bin	84.049333333333	0
bin	84.082666666667	0
bin	84.116	0
bin	84.149333333333	0
bin	84.182666666667	0
bin	84.216	0
bin	84.249333333333	0
bin	84.282666666667	0
bin	84.316	0
bin	84.349333333333	0
bin	84.382666666667	0
bin	84.416	1
bin	84.449333333333	0
bin	84.482666666667	0
bin	84.516	0
bin	84.549333333333	0
bin	84.582666666667	0
bin	84.616	0
bin	84.649333333333	0
bin	84.682666666667	0
bin	84.716	0
bin	84.749333333333	0
bin	84.782666666667	0
bin	84.816	0
bin	84.849333333333	0
bin	84.882666666667	0
bin	84.916	0
statistic RandomGeometricGraph.rgnv[485] 	arrivalPerc:histogram
field count 1
field mean 1
field stddev nan
field sum 1
field sqrsum 1
field min 1
field max 1
attr interpolationmode  none
attr source  count(arrival)
attr title  "arrival perc, histogram"
bin	-INF	0
bin	0	0
bin	1	1
bin	2	0
statistic RandomGeometricGraph.rgnv[486] 	arrivalTime:histogram
field count 1
field mean 211.716
field stddev nan
field sum 211.716
field sqrsum 44823.664656
field min 211.716
field max 211.716
attr interpolationmode  none
attr source  arrivalTime
attr title  "arrival time, histogram"
bin	-INF	0
bin	211.216	0
bin	211.24933333333	0
bin	211.28266666667	0
bin	211.316	0
bin	211.34933333333	0
bin	211.38266666667	0
bin	211.416	0
bin	211.44933333333	0
bin	211.48266666667	0
bin	211.516	0
bin	211.54933333333	0
bin	211.58266666667	0
bin	211.616	0
bin	211.64933333333	0
bin	211.68266666667	0
bin	211.716	1
bin	211.74933333333	0
bin	211.78266666667	0
bin	211.816	0
bin	211.84933333333	0
bin	211.88266666667	0
bin	211.916	0
bin	211.94933333333	0
bin	211.98266666667	0
bin	212.016	0
bin	212.04933333333	0
bin	212.08266666667	0
bin	212.116	0
bin	212.14933333333	0
bin	212.18266666667	0
bin	212.216	0
statistic RandomGeometricGraph.rgnv[486] 	arrivalPerc:histogram
field count 1
field mean 1
field stddev nan
field sum 1
field sqrsum 1
field min 1
field max 1
attr interpolationmode  none
attr source  count(arrival)
attr title  "arrival perc, histogram"
bin	-INF	0
bin	0	0
bin	1	1
bin	2	0
statistic RandomGeometricGraph.rgnv[487] 	arrivalTime:histogram
field count 1
field mean 173.34
field stddev nan
field sum 173.34
field sqrsum 30046.7556
field min 173.34
field max 173.34
attr interpolationmode  none
attr source  arrivalTime
attr title  "arrival time, histogram"
bin	-INF	0
bin	172.84	0
bin	172.87333333333	0
bin	172.90666666667	0
bin	172.94	0
bin	172.97333333333	0
bin	173.00666666667	0
bin	173.04	0
bin	173.07333333333	0
bin	173.10666666667	0
bin	173.14	0
bin	173.17333333333	0
bin	173.20666666667	0
bin	173.24	0
bin	173.27333333333	0
bin	173.30666666667	0
bin	173.34	1
bin	173.37333333333	0
bin	173.40666666667	0
bin	173.44	0
bin	173.47333333333	0
bin	173.50666666667	0
bin	173.54	0
bin	173.57333333333	0
bin	173.60666666667	0
bin	173.64	0
bin	173.67333333333	0
bin	173.70666666667	0
bin	173.74	0
bin	173.77333333333	0
bin	173.80666666667	0
bin	173.84	0
statistic RandomGeometricGraph.rgnv[487] 	arrivalPerc:histogram
field count 1
field mean 1
field stddev nan
field sum 1
field sqrsum 1
field min 1
field max 1
attr interpolationmode  none
attr source  count(arrival)
attr title  "arrival perc, histogram"
bin	-INF	0
bin	0	0
bin	1	1
bin	2	0
statistic RandomGeometricGraph.rgnv[488] 	arrivalTime:histogram
field count 1
field mean 199.485
field stddev nan
field sum 199.485
field sqrsum 39794.265225
field min 199.485
field max 199.485
attr interpolationmode  none
attr source  arrivalTime
attr title  "arrival time, histogram"
bin	-INF	0
bin	198.985	0
bin	199.01833333333	0
bin	199.05166666667	0
bin	199.085	0
bin	199.11833333333	0
bin	199.15166666667	0
bin	199.185	0
bin	199.21833333333	0
bin	199.25166666667	0
bin	199.285	0
bin	199.31833333333	0
bin	199.35166666667	0
bin	199.385	0
bin	199.41833333333	0
bin	199.45166666667	0
bin	199.485	1
bin	199.51833333333	0
bin	199.55166666667	0
bin	199.585	0
bin	199.61833333333	0
bin	199.65166666667	0
bin	199.685	0
bin	199.71833333333	0
bin	199.75166666667	0
bin	199.785	0
bin	199.81833333333	0
bin	199.85166666667	0
bin	199.885	0
bin	199.91833333333	0
bin	199.95166666667	0
bin	199.985	0
statistic RandomGeometricGraph.rgnv[488] 	arrivalPerc:histogram
field count 1
field mean 1
field stddev nan
field sum 1
field sqrsum 1
field min 1
field max 1
attr interpolationmode  none
attr source  count(arrival)
attr title  "arrival perc, histogram"
bin	-INF	0
bin	0	0
bin	1	1
bin	2	0
statistic RandomGeometricGraph.rgnv[489] 	arrivalTime:histogram
field count 1
field mean 126.099
field stddev nan
field sum 126.099
field sqrsum 15900.957801
field min 126.099
field max 126.099
attr interpolationmode  none
attr source  arrivalTime
attr title  "arrival time, histogram"
bin	-INF	0
bin	125.599	0
bin	125.63233333333	0
bin	125.66566666667	0
bin	125.699	0
bin	125.73233333333	0
bin	125.76566666667	0
bin	125.799	0
bin	125.83233333333	0
bin	125.86566666667	0
bin	125.899	0
bin	125.93233333333	0
bin	125.96566666667	0
bin	125.999	0
bin	126.03233333333	0
bin	126.06566666667	0
bin	126.099	1
bin	126.13233333333	0
bin	126.16566666667	0
bin	126.199	0
bin	126.23233333333	0
bin	126.26566666667	0
bin	126.299	0
bin	126.33233333333	0
bin	126.36566666667	0
bin	126.399	0
bin	126.43233333333	0
bin	126.46566666667	0
bin	126.499	0
bin	126.53233333333	0
bin	126.56566666667	0
bin	126.599	0
statistic RandomGeometricGraph.rgnv[489] 	arrivalPerc:histogram
field count 1
field mean 1
field stddev nan
field sum 1
field sqrsum 1
field min 1
field max 1
attr interpolationmode  none
attr source  count(arrival)
attr title  "arrival perc, histogram"
bin	-INF	0
bin	0	0
bin	1	1
bin	2	0
statistic RandomGeometricGraph.rgnv[490] 	arrivalTime:histogram
field count 1
field mean 151.109
field stddev nan
field sum 151.109
field sqrsum 22833.929881
field min 151.109
field max 151.109
attr interpolationmode  none
attr source  arrivalTime
attr title  "arrival time, histogram"
bin	-INF	0
bin	150.609	0
bin	150.64233333333	0
bin	150.67566666667	0
bin	150.709	0
bin	150.74233333333	0
bin	150.77566666667	0
bin	150.809	0
bin	150.84233333333	0
bin	150.87566666667	0
bin	150.909	0
bin	150.94233333333	0
bin	150.97566666667	0
bin	151.009	0
bin	151.04233333333	0
bin	151.07566666667	0
bin	151.109	1
bin	151.14233333333	0
bin	151.17566666667	0
bin	151.209	0
bin	151.24233333333	0
bin	151.27566666667	0
bin	151.309	0
bin	151.34233333333	0
bin	151.37566666667	0
bin	151.409	0
bin	151.44233333333	0
bin	151.47566666667	0
bin	151.509	0
bin	151.54233333333	0
bin	151.57566666667	0
bin	151.609	0
statistic RandomGeometricGraph.rgnv[490] 	arrivalPerc:histogram
field count 1
field mean 1
field stddev nan
field sum 1
field sqrsum 1
field min 1
field max 1
attr interpolationmode  none
attr source  count(arrival)
attr title  "arrival perc, histogram"
bin	-INF	0
bin	0	0
bin	1	1
bin	2	0
statistic RandomGeometricGraph.rgnv[491] 	arrivalTime:histogram
field count 1
field mean 210.013
field stddev nan
field sum 210.013
field sqrsum 44105.460169
field min 210.013
field max 210.013
attr interpolationmode  none
attr source  arrivalTime
attr title  "arrival time, histogram"
bin	-INF	0
bin	209.513	0
bin	209.54633333333	0
bin	209.57966666667	0
bin	209.613	0
bin	209.64633333333	0
bin	209.67966666667	0
bin	209.713	0
bin	209.74633333333	0
bin	209.77966666667	0
bin	209.813	0
bin	209.84633333333	0
bin	209.87966666667	0
bin	209.913	0
bin	209.94633333333	0
bin	209.97966666667	0
bin	210.013	1
bin	210.04633333333	0
bin	210.07966666667	0
bin	210.113	0
bin	210.14633333333	0
bin	210.17966666667	0
bin	210.213	0
bin	210.24633333333	0
bin	210.27966666667	0
bin	210.313	0
bin	210.34633333333	0
bin	210.37966666667	0
bin	210.413	0
bin	210.44633333333	0
bin	210.47966666667	0
bin	210.513	0
statistic RandomGeometricGraph.rgnv[491] 	arrivalPerc:histogram
field count 1
field mean 1
field stddev nan
field sum 1
field sqrsum 1
field min 1
field max 1
attr interpolationmode  none
attr source  count(arrival)
attr title  "arrival perc, histogram"
bin	-INF	0
bin	0	0
bin	1	1
bin	2	0
statistic RandomGeometricGraph.rgnv[492] 	arrivalTime:histogram
field count 1
field mean 121.109
field stddev nan
field sum 121.109
field sqrsum 14667.389881
field min 121.109
field max 121.109
attr interpolationmode  none
attr source  arrivalTime
attr title  "arrival time, histogram"
bin	-INF	0
bin	120.609	0
bin	120.64233333333	0
bin	120.67566666667	0
bin	120.709	0
bin	120.74233333333	0
bin	120.77566666667	0
bin	120.809	0
bin	120.84233333333	0
bin	120.87566666667	0
bin	120.909	0
bin	120.94233333333	0
bin	120.97566666667	0
bin	121.009	0
bin	121.04233333333	0
bin	121.07566666667	0
bin	121.109	1
bin	121.14233333333	0
bin	121.17566666667	0
bin	121.209	0
bin	121.24233333333	0
bin	121.27566666667	0
bin	121.309	0
bin	121.34233333333	0
bin	121.37566666667	0
bin	121.409	0
bin	121.44233333333	0
bin	121.47566666667	0
bin	121.509	0
bin	121.54233333333	0
bin	121.57566666667	0
bin	121.609	0
statistic RandomGeometricGraph.rgnv[492] 	arrivalPerc:histogram
field count 1
field mean 1
field stddev nan
field sum 1
field sqrsum 1
field min 1
field max 1
attr interpolationmode  none
attr source  count(arrival)
attr title  "arrival perc, histogram"
bin	-INF	0
bin	0	0
bin	1	1
bin	2	0
statistic RandomGeometricGraph.rgnv[493] 	arrivalTime:histogram
field count 1
field mean 220.023
field stddev nan
field sum 220.023
field sqrsum 48410.120529
field min 220.023
field max 220.023
attr interpolationmode  none
attr source  arrivalTime
attr title  "arrival time, histogram"
bin	-INF	0
bin	219.523	0
bin	219.55633333333	0
bin	219.58966666667	0
bin	219.623	0
bin	219.65633333333	0
bin	219.68966666667	0
bin	219.723	0
bin	219.75633333333	0
bin	219.78966666667	0
bin	219.823	0
bin	219.85633333333	0
bin	219.88966666667	0
bin	219.923	0
bin	219.95633333333	0
bin	219.98966666667	0
bin	220.023	1
bin	220.05633333333	0
bin	220.08966666667	0
bin	220.123	0
bin	220.15633333333	0
bin	220.18966666667	0
bin	220.223	0
bin	220.25633333333	0
bin	220.28966666667	0
bin	220.323	0
bin	220.35633333333	0
bin	220.38966666667	0
bin	220.423	0
bin	220.45633333333	0
bin	220.48966666667	0
bin	220.523	0
statistic RandomGeometricGraph.rgnv[493] 	arrivalPerc:histogram
field count 1
field mean 1
field stddev nan
field sum 1
field sqrsum 1
field min 1
field max 1
attr interpolationmode  none
attr source  count(arrival)
attr title  "arrival perc, histogram"
bin	-INF	0
bin	0	0
bin	1	1
bin	2	0
statistic RandomGeometricGraph.rgnv[494] 	arrivalTime:histogram
field count 1
field mean 91.637
field stddev nan
field sum 91.637
field sqrsum 8397.339769
field min 91.637
field max 91.637
attr interpolationmode  none
attr source  arrivalTime
attr title  "arrival time, histogram"
bin	-INF	0
bin	91.137	0
bin	91.170333333333	0
bin	91.203666666667	0
bin	91.237	0
bin	91.270333333333	0
bin	91.303666666667	0
bin	91.337	0
bin	91.370333333333	0
bin	91.403666666667	0
bin	91.437	0
bin	91.470333333333	0
bin	91.503666666667	0
bin	91.537	0
bin	91.570333333333	0
bin	91.603666666667	0
bin	91.637	1
bin	91.670333333333	0
bin	91.703666666667	0
bin	91.737	0
bin	91.770333333333	0
bin	91.803666666667	0
bin	91.837	0
bin	91.870333333333	0
bin	91.903666666667	0
bin	91.937	0
bin	91.970333333333	0
bin	92.003666666667	0
bin	92.037	0
bin	92.070333333333	0
bin	92.103666666667	0
bin	92.137	0
statistic RandomGeometricGraph.rgnv[494] 	arrivalPerc:histogram
field count 1
field mean 1
field stddev nan
field sum 1
field sqrsum 1
field min 1
field max 1
attr interpolationmode  none
attr source  count(arrival)
attr title  "arrival perc, histogram"
bin	-INF	0
bin	0	0
bin	1	1
bin	2	0
statistic RandomGeometricGraph.rgnv[495] 	arrivalTime:histogram
field count 1
field mean 131.099
field stddev nan
field sum 131.099
field sqrsum 17186.947801
field min 131.099
field max 131.099
attr interpolationmode  none
attr source  arrivalTime
attr title  "arrival time, histogram"
bin	-INF	0
bin	130.599	0
bin	130.63233333333	0
bin	130.66566666667	0
bin	130.699	0
bin	130.73233333333	0
bin	130.76566666667	0
bin	130.799	0
bin	130.83233333333	0
bin	130.86566666667	0
bin	130.899	0
bin	130.93233333333	0
bin	130.96566666667	0
bin	130.999	0
bin	131.03233333333	0
bin	131.06566666667	0
bin	131.099	1
bin	131.13233333333	0
bin	131.16566666667	0
bin	131.199	0
bin	131.23233333333	0
bin	131.26566666667	0
bin	131.299	0
bin	131.33233333333	0
bin	131.36566666667	0
bin	131.399	0
bin	131.43233333333	0
bin	131.46566666667	0
bin	131.499	0
bin	131.53233333333	0
bin	131.56566666667	0
bin	131.599	0
statistic RandomGeometricGraph.rgnv[495] 	arrivalPerc:histogram
field count 1
field mean 1
field stddev nan
field sum 1
field sqrsum 1
field min 1
field max 1
attr interpolationmode  none
attr source  count(arrival)
attr title  "arrival perc, histogram"
bin	-INF	0
bin	0	0
bin	1	1
bin	2	0
statistic RandomGeometricGraph.rgnv[496] 	arrivalTime:histogram
field count 1
field mean 148.33
field stddev nan
field sum 148.33
field sqrsum 22001.7889
field min 148.33
field max 148.33
attr interpolationmode  none
attr source  arrivalTime
attr title  "arrival time, histogram"
bin	-INF	0
bin	147.83	0
bin	147.86333333333	0
bin	147.89666666667	0
bin	147.93	0
bin	147.96333333333	0
bin	147.99666666667	0
bin	148.03	0
bin	148.06333333333	0
bin	148.09666666667	0
bin	148.13	0
bin	148.16333333333	0
bin	148.19666666667	0
bin	148.23	0
bin	148.26333333333	0
bin	148.29666666667	0
bin	148.33	1
bin	148.36333333333	0
bin	148.39666666667	0
bin	148.43	0
bin	148.46333333333	0
bin	148.49666666667	0
bin	148.53	0
bin	148.56333333333	0
bin	148.59666666667	0
bin	148.63	0
bin	148.66333333333	0
bin	148.69666666667	0
bin	148.73	0
bin	148.76333333333	0
bin	148.79666666667	0
bin	148.83	0
statistic RandomGeometricGraph.rgnv[496] 	arrivalPerc:histogram
field count 1
field mean 1
field stddev nan
field sum 1
field sqrsum 1
field min 1
field max 1
attr interpolationmode  none
attr source  count(arrival)
attr title  "arrival perc, histogram"
bin	-INF	0
bin	0	0
bin	1	1
bin	2	0
statistic RandomGeometricGraph.rgnv[497] 	arrivalTime:histogram
field count 1
field mean 133.33
field stddev nan
field sum 133.33
field sqrsum 17776.8889
field min 133.33
field max 133.33
attr interpolationmode  none
attr source  arrivalTime
attr title  "arrival time, histogram"
bin	-INF	0
bin	132.83	0
bin	132.86333333333	0
bin	132.89666666667	0
bin	132.93	0
bin	132.96333333333	0
bin	132.99666666667	0
bin	133.03	0
bin	133.06333333333	0
bin	133.09666666667	0
bin	133.13	0
bin	133.16333333333	0
bin	133.19666666667	0
bin	133.23	0
bin	133.26333333333	0
bin	133.29666666667	0
bin	133.33	1
bin	133.36333333333	0
bin	133.39666666667	0
bin	133.43	0
bin	133.46333333333	0
bin	133.49666666667	0
bin	133.53	0
bin	133.56333333333	0
bin	133.59666666667	0
bin	133.63	0
bin	133.66333333333	0
bin	133.69666666667	0
bin	133.73	0
bin	133.76333333333	0
bin	133.79666666667	0
bin	133.83	0
statistic RandomGeometricGraph.rgnv[497] 	arrivalPerc:histogram
field count 1
field mean 1
field stddev nan
field sum 1
field sqrsum 1
field min 1
field max 1
attr interpolationmode  none
attr source  count(arrival)
attr title  "arrival perc, histogram"
bin	-INF	0
bin	0	0
bin	1	1
bin	2	0
statistic RandomGeometricGraph.rgnv[498] 	arrivalTime:histogram
field count 1
field mean 215.013
field stddev nan
field sum 215.013
field sqrsum 46230.590169
field min 215.013
field max 215.013
attr interpolationmode  none
attr source  arrivalTime
attr title  "arrival time, histogram"
bin	-INF	0
bin	214.513	0
bin	214.54633333333	0
bin	214.57966666667	0
bin	214.613	0
bin	214.64633333333	0
bin	214.67966666667	0
bin	214.713	0
bin	214.74633333333	0
bin	214.77966666667	0
bin	214.813	0
bin	214.84633333333	0
bin	214.87966666667	0
bin	214.913	0
bin	214.94633333333	0
bin	214.97966666667	0
bin	215.013	1
bin	215.04633333333	0
bin	215.07966666667	0
bin	215.113	0
bin	215.14633333333	0
bin	215.17966666667	0
bin	215.213	0
bin	215.24633333333	0
bin	215.27966666667	0
bin	215.313	0
bin	215.34633333333	0
bin	215.37966666667	0
bin	215.413	0
bin	215.44633333333	0
bin	215.47966666667	0
bin	215.513	0
statistic RandomGeometricGraph.rgnv[498] 	arrivalPerc:histogram
field count 1
field mean 1
field stddev nan
field sum 1
field sqrsum 1
field min 1
field max 1
attr interpolationmode  none
attr source  count(arrival)
attr title  "arrival perc, histogram"
bin	-INF	0
bin	0	0
bin	1	1
bin	2	0
statistic RandomGeometricGraph.rgnv[499] 	arrivalTime:histogram
field count 1
field mean 138.888
field stddev nan
field sum 138.888
field sqrsum 19289.876544
field min 138.888
field max 138.888
attr interpolationmode  none
attr source  arrivalTime
attr title  "arrival time, histogram"
bin	-INF	0
bin	138.388	0
bin	138.42133333333	0
bin	138.45466666667	0
bin	138.488	0
bin	138.52133333333	0
bin	138.55466666667	0
bin	138.588	0
bin	138.62133333333	0
bin	138.65466666667	0
bin	138.688	0
bin	138.72133333333	0
bin	138.75466666667	0
bin	138.788	0
bin	138.82133333333	0
bin	138.85466666667	0
bin	138.888	1
bin	138.92133333333	0
bin	138.95466666667	0
bin	138.988	0
bin	139.02133333333	0
bin	139.05466666667	0
bin	139.088	0
bin	139.12133333333	0
bin	139.15466666667	0
bin	139.188	0
bin	139.22133333333	0
bin	139.25466666667	0
bin	139.288	0
bin	139.32133333333	0
bin	139.35466666667	0
bin	139.388	0
statistic RandomGeometricGraph.rgnv[499] 	arrivalPerc:histogram
field count 1
field mean 1
field stddev nan
field sum 1
field sqrsum 1
field min 1
field max 1
attr interpolationmode  none
attr source  count(arrival)
attr title  "arrival perc, histogram"
bin	-INF	0
bin	0	0
bin	1	1
bin	2	0
