version 2
run rgg500-2-20170110-16:29:03-7904
attr configname rgg500
attr datetime 20170110-16:29:03
attr experiment rgg500
attr inifile iniFile/D001/omnetpp_50D001.ini
attr iterationvars ""
attr iterationvars2 $repetition=2
attr measurement ""
attr network blegossipprj.net.randomgeometricgraph.RandomGeometricGraph
attr processid 7904
attr repetition 2
attr replication #2
attr resultdir ../../results/D001/r50D001
attr runnumber 2
attr seedset 2
param RandomGeometricGraph.netSize 500
param RandomGeometricGraph.radius 50
param RandomGeometricGraph.rgnv[*].areaLength 158
param RandomGeometricGraph.rgnv[*].areaWidth 158

statistic RandomGeometricGraph.sc 	arrivalPercentage
field count 500
field mean 1
field stddev 0
field sum 500
field sqrsum 500
field min 1
field max 1
attr type  int
bin	-INF	0
bin	0	0
bin	1	500
bin	2	0
statistic RandomGeometricGraph.sc 	arrivalTime
field count 500
field mean 157.087356
field stddev 55.027884981637
field sum 78543.678
field sqrsum 13849224.702186
field min 0
field max 272.254
bin	-INF	0
bin	-53.3285	0
bin	-46.218033333333	0
bin	-39.107566666667	0
bin	-31.9971	0
bin	-24.886633333333	0
bin	-17.776166666667	0
bin	-10.6657	0
bin	-3.5552333333333	1
bin	3.5552333333333	0
bin	10.6657	1
bin	17.776166666667	0
bin	24.886633333333	2
bin	31.9971	4
bin	39.107566666667	0
bin	46.218033333333	7
bin	53.3285	0
bin	60.438966666667	13
bin	67.549433333333	9
bin	74.6599	10
bin	81.770366666667	12
bin	88.880833333333	11
bin	95.9913	22
bin	103.10176666667	20
bin	110.21223333333	13
bin	117.3227	28
bin	124.43316666667	21
bin	131.54363333333	24
bin	138.6541	21
bin	145.76456666667	15
bin	152.87503333333	18
bin	159.9855	248
statistic RandomGeometricGraph.rgnv[0] 	arrivalTime:histogram
field count 1
field mean 185.033
field stddev nan
field sum 185.033
field sqrsum 34237.211089
field min 185.033
field max 185.033
attr interpolationmode  none
attr source  arrivalTime
attr title  "arrival time, histogram"
bin	-INF	0
bin	184.533	0
bin	184.56633333333	0
bin	184.59966666667	0
bin	184.633	0
bin	184.66633333333	0
bin	184.69966666667	0
bin	184.733	0
bin	184.76633333333	0
bin	184.79966666667	0
bin	184.833	0
bin	184.86633333333	0
bin	184.89966666667	0
bin	184.933	0
bin	184.96633333333	0
bin	184.99966666667	0
bin	185.033	1
bin	185.06633333333	0
bin	185.09966666667	0
bin	185.133	0
bin	185.16633333333	0
bin	185.19966666667	0
bin	185.233	0
bin	185.26633333333	0
bin	185.29966666667	0
bin	185.333	0
bin	185.36633333333	0
bin	185.39966666667	0
bin	185.433	0
bin	185.46633333333	0
bin	185.49966666667	0
bin	185.533	0
statistic RandomGeometricGraph.rgnv[0] 	arrivalPerc:histogram
field count 1
field mean 1
field stddev nan
field sum 1
field sqrsum 1
field min 1
field max 1
attr interpolationmode  none
attr source  count(arrival)
attr title  "arrival perc, histogram"
bin	-INF	0
bin	0	0
bin	1	1
bin	2	0
statistic RandomGeometricGraph.rgnv[1] 	arrivalTime:histogram
field count 1
field mean 101.647
field stddev nan
field sum 101.647
field sqrsum 10332.112609
field min 101.647
field max 101.647
attr interpolationmode  none
attr source  arrivalTime
attr title  "arrival time, histogram"
bin	-INF	0
bin	101.147	0
bin	101.18033333333	0
bin	101.21366666667	0
bin	101.247	0
bin	101.28033333333	0
bin	101.31366666667	0
bin	101.347	0
bin	101.38033333333	0
bin	101.41366666667	0
bin	101.447	0
bin	101.48033333333	0
bin	101.51366666667	0
bin	101.547	0
bin	101.58033333333	0
bin	101.61366666667	0
bin	101.647	1
bin	101.68033333333	0
bin	101.71366666667	0
bin	101.747	0
bin	101.78033333333	0
bin	101.81366666667	0
bin	101.847	0
bin	101.88033333333	0
bin	101.91366666667	0
bin	101.947	0
bin	101.98033333333	0
bin	102.01366666667	0
bin	102.047	0
bin	102.08033333333	0
bin	102.11366666667	0
bin	102.147	0
statistic RandomGeometricGraph.rgnv[1] 	arrivalPerc:histogram
field count 1
field mean 1
field stddev nan
field sum 1
field sqrsum 1
field min 1
field max 1
attr interpolationmode  none
attr source  count(arrival)
attr title  "arrival perc, histogram"
bin	-INF	0
bin	0	0
bin	1	1
bin	2	0
statistic RandomGeometricGraph.rgnv[2] 	arrivalTime:histogram
field count 1
field mean 143.34
field stddev nan
field sum 143.34
field sqrsum 20546.3556
field min 143.34
field max 143.34
attr interpolationmode  none
attr source  arrivalTime
attr title  "arrival time, histogram"
bin	-INF	0
bin	142.84	0
bin	142.87333333333	0
bin	142.90666666667	0
bin	142.94	0
bin	142.97333333333	0
bin	143.00666666667	0
bin	143.04	0
bin	143.07333333333	0
bin	143.10666666667	0
bin	143.14	0
bin	143.17333333333	0
bin	143.20666666667	0
bin	143.24	0
bin	143.27333333333	0
bin	143.30666666667	0
bin	143.34	1
bin	143.37333333333	0
bin	143.40666666667	0
bin	143.44	0
bin	143.47333333333	0
bin	143.50666666667	0
bin	143.54	0
bin	143.57333333333	0
bin	143.60666666667	0
bin	143.64	0
bin	143.67333333333	0
bin	143.70666666667	0
bin	143.74	0
bin	143.77333333333	0
bin	143.80666666667	0
bin	143.84	0
statistic RandomGeometricGraph.rgnv[2] 	arrivalPerc:histogram
field count 1
field mean 1
field stddev nan
field sum 1
field sqrsum 1
field min 1
field max 1
attr interpolationmode  none
attr source  count(arrival)
attr title  "arrival perc, histogram"
bin	-INF	0
bin	0	0
bin	1	1
bin	2	0
statistic RandomGeometricGraph.rgnv[3] 	arrivalTime:histogram
field count 1
field mean 96.637
field stddev nan
field sum 96.637
field sqrsum 9338.709769
field min 96.637
field max 96.637
attr interpolationmode  none
attr source  arrivalTime
attr title  "arrival time, histogram"
bin	-INF	0
bin	96.137	0
bin	96.170333333333	0
bin	96.203666666667	0
bin	96.237	0
bin	96.270333333333	0
bin	96.303666666667	0
bin	96.337	0
bin	96.370333333333	0
bin	96.403666666667	0
bin	96.437	0
bin	96.470333333333	0
bin	96.503666666667	0
bin	96.537	0
bin	96.570333333333	0
bin	96.603666666667	0
bin	96.637	1
bin	96.670333333333	0
bin	96.703666666667	0
bin	96.737	0
bin	96.770333333333	0
bin	96.803666666667	0
bin	96.837	0
bin	96.870333333333	0
bin	96.903666666667	0
bin	96.937	0
bin	96.970333333333	0
bin	97.003666666667	0
bin	97.037	0
bin	97.070333333333	0
bin	97.103666666667	0
bin	97.137	0
statistic RandomGeometricGraph.rgnv[3] 	arrivalPerc:histogram
field count 1
field mean 1
field stddev nan
field sum 1
field sqrsum 1
field min 1
field max 1
attr interpolationmode  none
attr source  count(arrival)
attr title  "arrival perc, histogram"
bin	-INF	0
bin	0	0
bin	1	1
bin	2	0
statistic RandomGeometricGraph.rgnv[4] 	arrivalTime:histogram
field count 1
field mean 188.33
field stddev nan
field sum 188.33
field sqrsum 35468.1889
field min 188.33
field max 188.33
attr interpolationmode  none
attr source  arrivalTime
attr title  "arrival time, histogram"
bin	-INF	0
bin	187.83	0
bin	187.86333333333	0
bin	187.89666666667	0
bin	187.93	0
bin	187.96333333333	0
bin	187.99666666667	0
bin	188.03	0
bin	188.06333333333	0
bin	188.09666666667	0
bin	188.13	0
bin	188.16333333333	0
bin	188.19666666667	0
bin	188.23	0
bin	188.26333333333	0
bin	188.29666666667	0
bin	188.33	1
bin	188.36333333333	0
bin	188.39666666667	0
bin	188.43	0
bin	188.46333333333	0
bin	188.49666666667	0
bin	188.53	0
bin	188.56333333333	0
bin	188.59666666667	0
bin	188.63	0
bin	188.66333333333	0
bin	188.69666666667	0
bin	188.73	0
bin	188.76333333333	0
bin	188.79666666667	0
bin	188.83	0
statistic RandomGeometricGraph.rgnv[4] 	arrivalPerc:histogram
field count 1
field mean 1
field stddev nan
field sum 1
field sqrsum 1
field min 1
field max 1
attr interpolationmode  none
attr source  count(arrival)
attr title  "arrival perc, histogram"
bin	-INF	0
bin	0	0
bin	1	1
bin	2	0
statistic RandomGeometricGraph.rgnv[5] 	arrivalTime:histogram
field count 1
field mean 180.561
field stddev nan
field sum 180.561
field sqrsum 32602.274721
field min 180.561
field max 180.561
attr interpolationmode  none
attr source  arrivalTime
attr title  "arrival time, histogram"
bin	-INF	0
bin	180.061	0
bin	180.09433333333	0
bin	180.12766666667	0
bin	180.161	0
bin	180.19433333333	0
bin	180.22766666667	0
bin	180.261	0
bin	180.29433333333	0
bin	180.32766666667	0
bin	180.361	0
bin	180.39433333333	0
bin	180.42766666667	0
bin	180.461	0
bin	180.49433333333	0
bin	180.52766666667	0
bin	180.561	1
bin	180.59433333333	0
bin	180.62766666667	0
bin	180.661	0
bin	180.69433333333	0
bin	180.72766666667	0
bin	180.761	0
bin	180.79433333333	0
bin	180.82766666667	0
bin	180.861	0
bin	180.89433333333	0
bin	180.92766666667	0
bin	180.961	0
bin	180.99433333333	0
bin	181.02766666667	0
bin	181.061	0
statistic RandomGeometricGraph.rgnv[5] 	arrivalPerc:histogram
field count 1
field mean 1
field stddev nan
field sum 1
field sqrsum 1
field min 1
field max 1
attr interpolationmode  none
attr source  count(arrival)
attr title  "arrival perc, histogram"
bin	-INF	0
bin	0	0
bin	1	1
bin	2	0
statistic RandomGeometricGraph.rgnv[6] 	arrivalTime:histogram
field count 1
field mean 232.792
field stddev nan
field sum 232.792
field sqrsum 54192.115264
field min 232.792
field max 232.792
attr interpolationmode  none
attr source  arrivalTime
attr title  "arrival time, histogram"
bin	-INF	0
bin	232.292	0
bin	232.32533333333	0
bin	232.35866666667	0
bin	232.392	0
bin	232.42533333333	0
bin	232.45866666667	0
bin	232.492	0
bin	232.52533333333	0
bin	232.55866666667	0
bin	232.592	0
bin	232.62533333333	0
bin	232.65866666667	0
bin	232.692	0
bin	232.72533333333	0
bin	232.75866666667	0
bin	232.792	1
bin	232.82533333333	0
bin	232.85866666667	0
bin	232.892	0
bin	232.92533333333	0
bin	232.95866666667	0
bin	232.992	0
bin	233.02533333333	0
bin	233.05866666667	0
bin	233.092	0
bin	233.12533333333	0
bin	233.15866666667	0
bin	233.192	0
bin	233.22533333333	0
bin	233.25866666667	0
bin	233.292	0
statistic RandomGeometricGraph.rgnv[6] 	arrivalPerc:histogram
field count 1
field mean 1
field stddev nan
field sum 1
field sqrsum 1
field min 1
field max 1
attr interpolationmode  none
attr source  count(arrival)
attr title  "arrival perc, histogram"
bin	-INF	0
bin	0	0
bin	1	1
bin	2	0
statistic RandomGeometricGraph.rgnv[7] 	arrivalTime:histogram
field count 1
field mean 143.34
field stddev nan
field sum 143.34
field sqrsum 20546.3556
field min 143.34
field max 143.34
attr interpolationmode  none
attr source  arrivalTime
attr title  "arrival time, histogram"
bin	-INF	0
bin	142.84	0
bin	142.87333333333	0
bin	142.90666666667	0
bin	142.94	0
bin	142.97333333333	0
bin	143.00666666667	0
bin	143.04	0
bin	143.07333333333	0
bin	143.10666666667	0
bin	143.14	0
bin	143.17333333333	0
bin	143.20666666667	0
bin	143.24	0
bin	143.27333333333	0
bin	143.30666666667	0
bin	143.34	1
bin	143.37333333333	0
bin	143.40666666667	0
bin	143.44	0
bin	143.47333333333	0
bin	143.50666666667	0
bin	143.54	0
bin	143.57333333333	0
bin	143.60666666667	0
bin	143.64	0
bin	143.67333333333	0
bin	143.70666666667	0
bin	143.74	0
bin	143.77333333333	0
bin	143.80666666667	0
bin	143.84	0
statistic RandomGeometricGraph.rgnv[7] 	arrivalPerc:histogram
field count 1
field mean 1
field stddev nan
field sum 1
field sqrsum 1
field min 1
field max 1
attr interpolationmode  none
attr source  count(arrival)
attr title  "arrival perc, histogram"
bin	-INF	0
bin	0	0
bin	1	1
bin	2	0
statistic RandomGeometricGraph.rgnv[8] 	arrivalTime:histogram
field count 1
field mean 241.726
field stddev nan
field sum 241.726
field sqrsum 58431.459076
field min 241.726
field max 241.726
attr interpolationmode  none
attr source  arrivalTime
attr title  "arrival time, histogram"
bin	-INF	0
bin	241.226	0
bin	241.25933333333	0
bin	241.29266666667	0
bin	241.326	0
bin	241.35933333333	0
bin	241.39266666667	0
bin	241.426	0
bin	241.45933333333	0
bin	241.49266666667	0
bin	241.526	0
bin	241.55933333333	0
bin	241.59266666667	0
bin	241.626	0
bin	241.65933333333	0
bin	241.69266666667	0
bin	241.726	1
bin	241.75933333333	0
bin	241.79266666667	0
bin	241.826	0
bin	241.85933333333	0
bin	241.89266666667	0
bin	241.926	0
bin	241.95933333333	0
bin	241.99266666667	0
bin	242.026	0
bin	242.05933333333	0
bin	242.09266666667	0
bin	242.126	0
bin	242.15933333333	0
bin	242.19266666667	0
bin	242.226	0
statistic RandomGeometricGraph.rgnv[8] 	arrivalPerc:histogram
field count 1
field mean 1
field stddev nan
field sum 1
field sqrsum 1
field min 1
field max 1
attr interpolationmode  none
attr source  count(arrival)
attr title  "arrival perc, histogram"
bin	-INF	0
bin	0	0
bin	1	1
bin	2	0
statistic RandomGeometricGraph.rgnv[9] 	arrivalTime:histogram
field count 1
field mean 37.693
field stddev nan
field sum 37.693
field sqrsum 1420.762249
field min 37.693
field max 37.693
attr interpolationmode  none
attr source  arrivalTime
attr title  "arrival time, histogram"
bin	-INF	0
bin	37.193	0
bin	37.226333333333	0
bin	37.259666666667	0
bin	37.293	0
bin	37.326333333333	0
bin	37.359666666667	0
bin	37.393	0
bin	37.426333333333	0
bin	37.459666666667	0
bin	37.493	0
bin	37.526333333333	0
bin	37.559666666667	0
bin	37.593	0
bin	37.626333333333	0
bin	37.659666666667	0
bin	37.693	1
bin	37.726333333333	0
bin	37.759666666667	0
bin	37.793	0
bin	37.826333333333	0
bin	37.859666666667	0
bin	37.893	0
bin	37.926333333333	0
bin	37.959666666667	0
bin	37.993	0
bin	38.026333333333	0
bin	38.059666666667	0
bin	38.093	0
bin	38.126333333333	0
bin	38.159666666667	0
bin	38.193	0
statistic RandomGeometricGraph.rgnv[9] 	arrivalPerc:histogram
field count 1
field mean 1
field stddev nan
field sum 1
field sqrsum 1
field min 1
field max 1
attr interpolationmode  none
attr source  count(arrival)
attr title  "arrival perc, histogram"
bin	-INF	0
bin	0	0
bin	1	1
bin	2	0
statistic RandomGeometricGraph.rgnv[10] 	arrivalTime:histogram
field count 1
field mean 165.043
field stddev nan
field sum 165.043
field sqrsum 27239.191849
field min 165.043
field max 165.043
attr interpolationmode  none
attr source  arrivalTime
attr title  "arrival time, histogram"
bin	-INF	0
bin	164.543	0
bin	164.57633333333	0
bin	164.60966666667	0
bin	164.643	0
bin	164.67633333333	0
bin	164.70966666667	0
bin	164.743	0
bin	164.77633333333	0
bin	164.80966666667	0
bin	164.843	0
bin	164.87633333333	0
bin	164.90966666667	0
bin	164.943	0
bin	164.97633333333	0
bin	165.00966666667	0
bin	165.043	1
bin	165.07633333333	0
bin	165.10966666667	0
bin	165.143	0
bin	165.17633333333	0
bin	165.20966666667	0
bin	165.243	0
bin	165.27633333333	0
bin	165.30966666667	0
bin	165.343	0
bin	165.37633333333	0
bin	165.40966666667	0
bin	165.443	0
bin	165.47633333333	0
bin	165.50966666667	0
bin	165.543	0
statistic RandomGeometricGraph.rgnv[10] 	arrivalPerc:histogram
field count 1
field mean 1
field stddev nan
field sum 1
field sqrsum 1
field min 1
field max 1
attr interpolationmode  none
attr source  count(arrival)
attr title  "arrival perc, histogram"
bin	-INF	0
bin	0	0
bin	1	1
bin	2	0
statistic RandomGeometricGraph.rgnv[11] 	arrivalTime:histogram
field count 1
field mean 188.33
field stddev nan
field sum 188.33
field sqrsum 35468.1889
field min 188.33
field max 188.33
attr interpolationmode  none
attr source  arrivalTime
attr title  "arrival time, histogram"
bin	-INF	0
bin	187.83	0
bin	187.86333333333	0
bin	187.89666666667	0
bin	187.93	0
bin	187.96333333333	0
bin	187.99666666667	0
bin	188.03	0
bin	188.06333333333	0
bin	188.09666666667	0
bin	188.13	0
bin	188.16333333333	0
bin	188.19666666667	0
bin	188.23	0
bin	188.26333333333	0
bin	188.29666666667	0
bin	188.33	1
bin	188.36333333333	0
bin	188.39666666667	0
bin	188.43	0
bin	188.46333333333	0
bin	188.49666666667	0
bin	188.53	0
bin	188.56333333333	0
bin	188.59666666667	0
bin	188.63	0
bin	188.66333333333	0
bin	188.69666666667	0
bin	188.73	0
bin	188.76333333333	0
bin	188.79666666667	0
bin	188.83	0
statistic RandomGeometricGraph.rgnv[11] 	arrivalPerc:histogram
field count 1
field mean 1
field stddev nan
field sum 1
field sqrsum 1
field min 1
field max 1
attr interpolationmode  none
attr source  count(arrival)
attr title  "arrival perc, histogram"
bin	-INF	0
bin	0	0
bin	1	1
bin	2	0
statistic RandomGeometricGraph.rgnv[12] 	arrivalTime:histogram
field count 1
field mean 245.571
field stddev nan
field sum 245.571
field sqrsum 60305.116041
field min 245.571
field max 245.571
attr interpolationmode  none
attr source  arrivalTime
attr title  "arrival time, histogram"
bin	-INF	0
bin	245.071	0
bin	245.10433333333	0
bin	245.13766666667	0
bin	245.171	0
bin	245.20433333333	0
bin	245.23766666667	0
bin	245.271	0
bin	245.30433333333	0
bin	245.33766666667	0
bin	245.371	0
bin	245.40433333333	0
bin	245.43766666667	0
bin	245.471	0
bin	245.50433333333	0
bin	245.53766666667	0
bin	245.571	1
bin	245.60433333333	0
bin	245.63766666667	0
bin	245.671	0
bin	245.70433333333	0
bin	245.73766666667	0
bin	245.771	0
bin	245.80433333333	0
bin	245.83766666667	0
bin	245.871	0
bin	245.90433333333	0
bin	245.93766666667	0
bin	245.971	0
bin	246.00433333333	0
bin	246.03766666667	0
bin	246.071	0
statistic RandomGeometricGraph.rgnv[12] 	arrivalPerc:histogram
field count 1
field mean 1
field stddev nan
field sum 1
field sqrsum 1
field min 1
field max 1
attr interpolationmode  none
attr source  count(arrival)
attr title  "arrival perc, histogram"
bin	-INF	0
bin	0	0
bin	1	1
bin	2	0
statistic RandomGeometricGraph.rgnv[13] 	arrivalTime:histogram
field count 1
field mean 165.033
field stddev nan
field sum 165.033
field sqrsum 27235.891089
field min 165.033
field max 165.033
attr interpolationmode  none
attr source  arrivalTime
attr title  "arrival time, histogram"
bin	-INF	0
bin	164.533	0
bin	164.56633333333	0
bin	164.59966666667	0
bin	164.633	0
bin	164.66633333333	0
bin	164.69966666667	0
bin	164.733	0
bin	164.76633333333	0
bin	164.79966666667	0
bin	164.833	0
bin	164.86633333333	0
bin	164.89966666667	0
bin	164.933	0
bin	164.96633333333	0
bin	164.99966666667	0
bin	165.033	1
bin	165.06633333333	0
bin	165.09966666667	0
bin	165.133	0
bin	165.16633333333	0
bin	165.19966666667	0
bin	165.233	0
bin	165.26633333333	0
bin	165.29966666667	0
bin	165.333	0
bin	165.36633333333	0
bin	165.39966666667	0
bin	165.433	0
bin	165.46633333333	0
bin	165.49966666667	0
bin	165.533	0
statistic RandomGeometricGraph.rgnv[13] 	arrivalPerc:histogram
field count 1
field mean 1
field stddev nan
field sum 1
field sqrsum 1
field min 1
field max 1
attr interpolationmode  none
attr source  count(arrival)
attr title  "arrival perc, histogram"
bin	-INF	0
bin	0	0
bin	1	1
bin	2	0
statistic RandomGeometricGraph.rgnv[14] 	arrivalTime:histogram
field count 1
field mean 185.023
field stddev nan
field sum 185.023
field sqrsum 34233.510529
field min 185.023
field max 185.023
attr interpolationmode  none
attr source  arrivalTime
attr title  "arrival time, histogram"
bin	-INF	0
bin	184.523	0
bin	184.55633333333	0
bin	184.58966666667	0
bin	184.623	0
bin	184.65633333333	0
bin	184.68966666667	0
bin	184.723	0
bin	184.75633333333	0
bin	184.78966666667	0
bin	184.823	0
bin	184.85633333333	0
bin	184.88966666667	0
bin	184.923	0
bin	184.95633333333	0
bin	184.98966666667	0
bin	185.023	1
bin	185.05633333333	0
bin	185.08966666667	0
bin	185.123	0
bin	185.15633333333	0
bin	185.18966666667	0
bin	185.223	0
bin	185.25633333333	0
bin	185.28966666667	0
bin	185.323	0
bin	185.35633333333	0
bin	185.38966666667	0
bin	185.423	0
bin	185.45633333333	0
bin	185.48966666667	0
bin	185.523	0
statistic RandomGeometricGraph.rgnv[14] 	arrivalPerc:histogram
field count 1
field mean 1
field stddev nan
field sum 1
field sqrsum 1
field min 1
field max 1
attr interpolationmode  none
attr source  count(arrival)
attr title  "arrival perc, histogram"
bin	-INF	0
bin	0	0
bin	1	1
bin	2	0
statistic RandomGeometricGraph.rgnv[15] 	arrivalTime:histogram
field count 1
field mean 91.637
field stddev nan
field sum 91.637
field sqrsum 8397.339769
field min 91.637
field max 91.637
attr interpolationmode  none
attr source  arrivalTime
attr title  "arrival time, histogram"
bin	-INF	0
bin	91.137	0
bin	91.170333333333	0
bin	91.203666666667	0
bin	91.237	0
bin	91.270333333333	0
bin	91.303666666667	0
bin	91.337	0
bin	91.370333333333	0
bin	91.403666666667	0
bin	91.437	0
bin	91.470333333333	0
bin	91.503666666667	0
bin	91.537	0
bin	91.570333333333	0
bin	91.603666666667	0
bin	91.637	1
bin	91.670333333333	0
bin	91.703666666667	0
bin	91.737	0
bin	91.770333333333	0
bin	91.803666666667	0
bin	91.837	0
bin	91.870333333333	0
bin	91.903666666667	0
bin	91.937	0
bin	91.970333333333	0
bin	92.003666666667	0
bin	92.037	0
bin	92.070333333333	0
bin	92.103666666667	0
bin	92.137	0
statistic RandomGeometricGraph.rgnv[15] 	arrivalPerc:histogram
field count 1
field mean 1
field stddev nan
field sum 1
field sqrsum 1
field min 1
field max 1
attr interpolationmode  none
attr source  count(arrival)
attr title  "arrival perc, histogram"
bin	-INF	0
bin	0	0
bin	1	1
bin	2	0
statistic RandomGeometricGraph.rgnv[16] 	arrivalTime:histogram
field count 1
field mean 25.462
field stddev nan
field sum 25.462
field sqrsum 648.313444
field min 25.462
field max 25.462
attr interpolationmode  none
attr source  arrivalTime
attr title  "arrival time, histogram"
bin	-INF	0
bin	24.962	0
bin	24.995333333333	0
bin	25.028666666667	0
bin	25.062	0
bin	25.095333333333	0
bin	25.128666666667	0
bin	25.162	0
bin	25.195333333333	0
bin	25.228666666667	0
bin	25.262	0
bin	25.295333333333	0
bin	25.328666666667	0
bin	25.362	0
bin	25.395333333333	0
bin	25.428666666667	0
bin	25.462	1
bin	25.495333333333	0
bin	25.528666666667	0
bin	25.562	0
bin	25.595333333333	0
bin	25.628666666667	0
bin	25.662	0
bin	25.695333333333	0
bin	25.728666666667	0
bin	25.762	0
bin	25.795333333333	0
bin	25.828666666667	0
bin	25.862	0
bin	25.895333333333	0
bin	25.928666666667	0
bin	25.962	0
statistic RandomGeometricGraph.rgnv[16] 	arrivalPerc:histogram
field count 1
field mean 1
field stddev nan
field sum 1
field sqrsum 1
field min 1
field max 1
attr interpolationmode  none
attr source  count(arrival)
attr title  "arrival perc, histogram"
bin	-INF	0
bin	0	0
bin	1	1
bin	2	0
statistic RandomGeometricGraph.rgnv[17] 	arrivalTime:histogram
field count 1
field mean 207.264
field stddev nan
field sum 207.264
field sqrsum 42958.365696
field min 207.264
field max 207.264
attr interpolationmode  none
attr source  arrivalTime
attr title  "arrival time, histogram"
bin	-INF	0
bin	206.764	0
bin	206.79733333333	0
bin	206.83066666667	0
bin	206.864	0
bin	206.89733333333	0
bin	206.93066666667	0
bin	206.964	0
bin	206.99733333333	0
bin	207.03066666667	0
bin	207.064	0
bin	207.09733333333	0
bin	207.13066666667	0
bin	207.164	0
bin	207.19733333333	0
bin	207.23066666667	0
bin	207.264	1
bin	207.29733333333	0
bin	207.33066666667	0
bin	207.364	0
bin	207.39733333333	0
bin	207.43066666667	0
bin	207.464	0
bin	207.49733333333	0
bin	207.53066666667	0
bin	207.564	0
bin	207.59733333333	0
bin	207.63066666667	0
bin	207.664	0
bin	207.69733333333	0
bin	207.73066666667	0
bin	207.764	0
statistic RandomGeometricGraph.rgnv[17] 	arrivalPerc:histogram
field count 1
field mean 1
field stddev nan
field sum 1
field sqrsum 1
field min 1
field max 1
attr interpolationmode  none
attr source  count(arrival)
attr title  "arrival perc, histogram"
bin	-INF	0
bin	0	0
bin	1	1
bin	2	0
statistic RandomGeometricGraph.rgnv[18] 	arrivalTime:histogram
field count 1
field mean 185.033
field stddev nan
field sum 185.033
field sqrsum 34237.211089
field min 185.033
field max 185.033
attr interpolationmode  none
attr source  arrivalTime
attr title  "arrival time, histogram"
bin	-INF	0
bin	184.533	0
bin	184.56633333333	0
bin	184.59966666667	0
bin	184.633	0
bin	184.66633333333	0
bin	184.69966666667	0
bin	184.733	0
bin	184.76633333333	0
bin	184.79966666667	0
bin	184.833	0
bin	184.86633333333	0
bin	184.89966666667	0
bin	184.933	0
bin	184.96633333333	0
bin	184.99966666667	0
bin	185.033	1
bin	185.06633333333	0
bin	185.09966666667	0
bin	185.133	0
bin	185.16633333333	0
bin	185.19966666667	0
bin	185.233	0
bin	185.26633333333	0
bin	185.29966666667	0
bin	185.333	0
bin	185.36633333333	0
bin	185.39966666667	0
bin	185.433	0
bin	185.46633333333	0
bin	185.49966666667	0
bin	185.533	0
statistic RandomGeometricGraph.rgnv[18] 	arrivalPerc:histogram
field count 1
field mean 1
field stddev nan
field sum 1
field sqrsum 1
field min 1
field max 1
attr interpolationmode  none
attr source  count(arrival)
attr title  "arrival perc, histogram"
bin	-INF	0
bin	0	0
bin	1	1
bin	2	0
statistic RandomGeometricGraph.rgnv[19] 	arrivalTime:histogram
field count 1
field mean 138.32
field stddev nan
field sum 138.32
field sqrsum 19132.4224
field min 138.32
field max 138.32
attr interpolationmode  none
attr source  arrivalTime
attr title  "arrival time, histogram"
bin	-INF	0
bin	137.82	0
bin	137.85333333333	0
bin	137.88666666667	0
bin	137.92	0
bin	137.95333333333	0
bin	137.98666666667	0
bin	138.02	0
bin	138.05333333333	0
bin	138.08666666667	0
bin	138.12	0
bin	138.15333333333	0
bin	138.18666666667	0
bin	138.22	0
bin	138.25333333333	0
bin	138.28666666667	0
bin	138.32	1
bin	138.35333333333	0
bin	138.38666666667	0
bin	138.42	0
bin	138.45333333333	0
bin	138.48666666667	0
bin	138.52	0
bin	138.55333333333	0
bin	138.58666666667	0
bin	138.62	0
bin	138.65333333333	0
bin	138.68666666667	0
bin	138.72	0
bin	138.75333333333	0
bin	138.78666666667	0
bin	138.82	0
statistic RandomGeometricGraph.rgnv[19] 	arrivalPerc:histogram
field count 1
field mean 1
field stddev nan
field sum 1
field sqrsum 1
field min 1
field max 1
attr interpolationmode  none
attr source  count(arrival)
attr title  "arrival perc, histogram"
bin	-INF	0
bin	0	0
bin	1	1
bin	2	0
statistic RandomGeometricGraph.rgnv[20] 	arrivalTime:histogram
field count 1
field mean 138.888
field stddev nan
field sum 138.888
field sqrsum 19289.876544
field min 138.888
field max 138.888
attr interpolationmode  none
attr source  arrivalTime
attr title  "arrival time, histogram"
bin	-INF	0
bin	138.388	0
bin	138.42133333333	0
bin	138.45466666667	0
bin	138.488	0
bin	138.52133333333	0
bin	138.55466666667	0
bin	138.588	0
bin	138.62133333333	0
bin	138.65466666667	0
bin	138.688	0
bin	138.72133333333	0
bin	138.75466666667	0
bin	138.788	0
bin	138.82133333333	0
bin	138.85466666667	0
bin	138.888	1
bin	138.92133333333	0
bin	138.95466666667	0
bin	138.988	0
bin	139.02133333333	0
bin	139.05466666667	0
bin	139.088	0
bin	139.12133333333	0
bin	139.15466666667	0
bin	139.188	0
bin	139.22133333333	0
bin	139.25466666667	0
bin	139.288	0
bin	139.32133333333	0
bin	139.35466666667	0
bin	139.388	0
statistic RandomGeometricGraph.rgnv[20] 	arrivalPerc:histogram
field count 1
field mean 1
field stddev nan
field sum 1
field sqrsum 1
field min 1
field max 1
attr interpolationmode  none
attr source  count(arrival)
attr title  "arrival perc, histogram"
bin	-INF	0
bin	0	0
bin	1	1
bin	2	0
statistic RandomGeometricGraph.rgnv[21] 	arrivalTime:histogram
field count 1
field mean 96.647
field stddev nan
field sum 96.647
field sqrsum 9340.642609
field min 96.647
field max 96.647
attr interpolationmode  none
attr source  arrivalTime
attr title  "arrival time, histogram"
bin	-INF	0
bin	96.147	0
bin	96.180333333333	0
bin	96.213666666667	0
bin	96.247	0
bin	96.280333333333	0
bin	96.313666666667	0
bin	96.347	0
bin	96.380333333333	0
bin	96.413666666667	0
bin	96.447	0
bin	96.480333333333	0
bin	96.513666666667	0
bin	96.547	0
bin	96.580333333333	0
bin	96.613666666667	0
bin	96.647	1
bin	96.680333333333	0
bin	96.713666666667	0
bin	96.747	0
bin	96.780333333333	0
bin	96.813666666667	0
bin	96.847	0
bin	96.880333333333	0
bin	96.913666666667	0
bin	96.947	0
bin	96.980333333333	0
bin	97.013666666667	0
bin	97.047	0
bin	97.080333333333	0
bin	97.113666666667	0
bin	97.147	0
statistic RandomGeometricGraph.rgnv[21] 	arrivalPerc:histogram
field count 1
field mean 1
field stddev nan
field sum 1
field sqrsum 1
field min 1
field max 1
attr interpolationmode  none
attr source  count(arrival)
attr title  "arrival perc, histogram"
bin	-INF	0
bin	0	0
bin	1	1
bin	2	0
statistic RandomGeometricGraph.rgnv[22] 	arrivalTime:histogram
field count 1
field mean 128.888
field stddev nan
field sum 128.888
field sqrsum 16612.116544
field min 128.888
field max 128.888
attr interpolationmode  none
attr source  arrivalTime
attr title  "arrival time, histogram"
bin	-INF	0
bin	128.388	0
bin	128.42133333333	0
bin	128.45466666667	0
bin	128.488	0
bin	128.52133333333	0
bin	128.55466666667	0
bin	128.588	0
bin	128.62133333333	0
bin	128.65466666667	0
bin	128.688	0
bin	128.72133333333	0
bin	128.75466666667	0
bin	128.788	0
bin	128.82133333333	0
bin	128.85466666667	0
bin	128.888	1
bin	128.92133333333	0
bin	128.95466666667	0
bin	128.988	0
bin	129.02133333333	0
bin	129.05466666667	0
bin	129.088	0
bin	129.12133333333	0
bin	129.15466666667	0
bin	129.188	0
bin	129.22133333333	0
bin	129.25466666667	0
bin	129.288	0
bin	129.32133333333	0
bin	129.35466666667	0
bin	129.388	0
statistic RandomGeometricGraph.rgnv[22] 	arrivalPerc:histogram
field count 1
field mean 1
field stddev nan
field sum 1
field sqrsum 1
field min 1
field max 1
attr interpolationmode  none
attr source  count(arrival)
attr title  "arrival perc, histogram"
bin	-INF	0
bin	0	0
bin	1	1
bin	2	0
statistic RandomGeometricGraph.rgnv[23] 	arrivalTime:histogram
field count 1
field mean 91.637
field stddev nan
field sum 91.637
field sqrsum 8397.339769
field min 91.637
field max 91.637
attr interpolationmode  none
attr source  arrivalTime
attr title  "arrival time, histogram"
bin	-INF	0
bin	91.137	0
bin	91.170333333333	0
bin	91.203666666667	0
bin	91.237	0
bin	91.270333333333	0
bin	91.303666666667	0
bin	91.337	0
bin	91.370333333333	0
bin	91.403666666667	0
bin	91.437	0
bin	91.470333333333	0
bin	91.503666666667	0
bin	91.537	0
bin	91.570333333333	0
bin	91.603666666667	0
bin	91.637	1
bin	91.670333333333	0
bin	91.703666666667	0
bin	91.737	0
bin	91.770333333333	0
bin	91.803666666667	0
bin	91.837	0
bin	91.870333333333	0
bin	91.903666666667	0
bin	91.937	0
bin	91.970333333333	0
bin	92.003666666667	0
bin	92.037	0
bin	92.070333333333	0
bin	92.103666666667	0
bin	92.137	0
statistic RandomGeometricGraph.rgnv[23] 	arrivalPerc:histogram
field count 1
field mean 1
field stddev nan
field sum 1
field sqrsum 1
field min 1
field max 1
attr interpolationmode  none
attr source  count(arrival)
attr title  "arrival perc, histogram"
bin	-INF	0
bin	0	0
bin	1	1
bin	2	0
statistic RandomGeometricGraph.rgnv[24] 	arrivalTime:histogram
field count 1
field mean 221.716
field stddev nan
field sum 221.716
field sqrsum 49157.984656
field min 221.716
field max 221.716
attr interpolationmode  none
attr source  arrivalTime
attr title  "arrival time, histogram"
bin	-INF	0
bin	221.216	0
bin	221.24933333333	0
bin	221.28266666667	0
bin	221.316	0
bin	221.34933333333	0
bin	221.38266666667	0
bin	221.416	0
bin	221.44933333333	0
bin	221.48266666667	0
bin	221.516	0
bin	221.54933333333	0
bin	221.58266666667	0
bin	221.616	0
bin	221.64933333333	0
bin	221.68266666667	0
bin	221.716	1
bin	221.74933333333	0
bin	221.78266666667	0
bin	221.816	0
bin	221.84933333333	0
bin	221.88266666667	0
bin	221.916	0
bin	221.94933333333	0
bin	221.98266666667	0
bin	222.016	0
bin	222.04933333333	0
bin	222.08266666667	0
bin	222.116	0
bin	222.14933333333	0
bin	222.18266666667	0
bin	222.216	0
statistic RandomGeometricGraph.rgnv[24] 	arrivalPerc:histogram
field count 1
field mean 1
field stddev nan
field sum 1
field sqrsum 1
field min 1
field max 1
attr interpolationmode  none
attr source  count(arrival)
attr title  "arrival perc, histogram"
bin	-INF	0
bin	0	0
bin	1	1
bin	2	0
statistic RandomGeometricGraph.rgnv[25] 	arrivalTime:histogram
field count 1
field mean 231.706
field stddev nan
field sum 231.706
field sqrsum 53687.670436
field min 231.706
field max 231.706
attr interpolationmode  none
attr source  arrivalTime
attr title  "arrival time, histogram"
bin	-INF	0
bin	231.206	0
bin	231.23933333333	0
bin	231.27266666667	0
bin	231.306	0
bin	231.33933333333	0
bin	231.37266666667	0
bin	231.406	0
bin	231.43933333333	0
bin	231.47266666667	0
bin	231.506	0
bin	231.53933333333	0
bin	231.57266666667	0
bin	231.606	0
bin	231.63933333333	0
bin	231.67266666667	0
bin	231.706	1
bin	231.73933333333	0
bin	231.77266666667	0
bin	231.806	0
bin	231.83933333333	0
bin	231.87266666667	0
bin	231.906	0
bin	231.93933333333	0
bin	231.97266666667	0
bin	232.006	0
bin	232.03933333333	0
bin	232.07266666667	0
bin	232.106	0
bin	232.13933333333	0
bin	232.17266666667	0
bin	232.206	0
statistic RandomGeometricGraph.rgnv[25] 	arrivalPerc:histogram
field count 1
field mean 1
field stddev nan
field sum 1
field sqrsum 1
field min 1
field max 1
attr interpolationmode  none
attr source  count(arrival)
attr title  "arrival perc, histogram"
bin	-INF	0
bin	0	0
bin	1	1
bin	2	0
statistic RandomGeometricGraph.rgnv[26] 	arrivalTime:histogram
field count 1
field mean 208.35
field stddev nan
field sum 208.35
field sqrsum 43409.7225
field min 208.35
field max 208.35
attr interpolationmode  none
attr source  arrivalTime
attr title  "arrival time, histogram"
bin	-INF	0
bin	207.85	0
bin	207.88333333333	0
bin	207.91666666667	0
bin	207.95	0
bin	207.98333333333	0
bin	208.01666666667	0
bin	208.05	0
bin	208.08333333333	0
bin	208.11666666667	0
bin	208.15	0
bin	208.18333333333	0
bin	208.21666666667	0
bin	208.25	0
bin	208.28333333333	0
bin	208.31666666667	0
bin	208.35	1
bin	208.38333333333	0
bin	208.41666666667	0
bin	208.45	0
bin	208.48333333333	0
bin	208.51666666667	0
bin	208.55	0
bin	208.58333333333	0
bin	208.61666666667	0
bin	208.65	0
bin	208.68333333333	0
bin	208.71666666667	0
bin	208.75	0
bin	208.78333333333	0
bin	208.81666666667	0
bin	208.85	0
statistic RandomGeometricGraph.rgnv[26] 	arrivalPerc:histogram
field count 1
field mean 1
field stddev nan
field sum 1
field sqrsum 1
field min 1
field max 1
attr interpolationmode  none
attr source  count(arrival)
attr title  "arrival perc, histogram"
bin	-INF	0
bin	0	0
bin	1	1
bin	2	0
statistic RandomGeometricGraph.rgnv[27] 	arrivalTime:histogram
field count 1
field mean 91.617
field stddev nan
field sum 91.617
field sqrsum 8393.674689
field min 91.617
field max 91.617
attr interpolationmode  none
attr source  arrivalTime
attr title  "arrival time, histogram"
bin	-INF	0
bin	91.117	0
bin	91.150333333333	0
bin	91.183666666667	0
bin	91.217	0
bin	91.250333333333	0
bin	91.283666666667	0
bin	91.317	0
bin	91.350333333333	0
bin	91.383666666667	0
bin	91.417	0
bin	91.450333333333	0
bin	91.483666666667	0
bin	91.517	0
bin	91.550333333333	0
bin	91.583666666667	0
bin	91.617	1
bin	91.650333333333	0
bin	91.683666666667	0
bin	91.717	0
bin	91.750333333333	0
bin	91.783666666667	0
bin	91.817	0
bin	91.850333333333	0
bin	91.883666666667	0
bin	91.917	0
bin	91.950333333333	0
bin	91.983666666667	0
bin	92.017	0
bin	92.050333333333	0
bin	92.083666666667	0
bin	92.117	0
statistic RandomGeometricGraph.rgnv[27] 	arrivalPerc:histogram
field count 1
field mean 1
field stddev nan
field sum 1
field sqrsum 1
field min 1
field max 1
attr interpolationmode  none
attr source  count(arrival)
attr title  "arrival perc, histogram"
bin	-INF	0
bin	0	0
bin	1	1
bin	2	0
statistic RandomGeometricGraph.rgnv[28] 	arrivalTime:histogram
field count 1
field mean 228.36
field stddev nan
field sum 228.36
field sqrsum 52148.2896
field min 228.36
field max 228.36
attr interpolationmode  none
attr source  arrivalTime
attr title  "arrival time, histogram"
bin	-INF	0
bin	227.86	0
bin	227.89333333333	0
bin	227.92666666667	0
bin	227.96	0
bin	227.99333333333	0
bin	228.02666666667	0
bin	228.06	0
bin	228.09333333333	0
bin	228.12666666667	0
bin	228.16	0
bin	228.19333333333	0
bin	228.22666666667	0
bin	228.26	0
bin	228.29333333333	0
bin	228.32666666667	0
bin	228.36	1
bin	228.39333333333	0
bin	228.42666666667	0
bin	228.46	0
bin	228.49333333333	0
bin	228.52666666667	0
bin	228.56	0
bin	228.59333333333	0
bin	228.62666666667	0
bin	228.66	0
bin	228.69333333333	0
bin	228.72666666667	0
bin	228.76	0
bin	228.79333333333	0
bin	228.82666666667	0
bin	228.86	0
statistic RandomGeometricGraph.rgnv[28] 	arrivalPerc:histogram
field count 1
field mean 1
field stddev nan
field sum 1
field sqrsum 1
field min 1
field max 1
attr interpolationmode  none
attr source  count(arrival)
attr title  "arrival perc, histogram"
bin	-INF	0
bin	0	0
bin	1	1
bin	2	0
statistic RandomGeometricGraph.rgnv[29] 	arrivalTime:histogram
field count 1
field mean 101.657
field stddev nan
field sum 101.657
field sqrsum 10334.145649
field min 101.657
field max 101.657
attr interpolationmode  none
attr source  arrivalTime
attr title  "arrival time, histogram"
bin	-INF	0
bin	101.157	0
bin	101.19033333333	0
bin	101.22366666667	0
bin	101.257	0
bin	101.29033333333	0
bin	101.32366666667	0
bin	101.357	0
bin	101.39033333333	0
bin	101.42366666667	0
bin	101.457	0
bin	101.49033333333	0
bin	101.52366666667	0
bin	101.557	0
bin	101.59033333333	0
bin	101.62366666667	0
bin	101.657	1
bin	101.69033333333	0
bin	101.72366666667	0
bin	101.757	0
bin	101.79033333333	0
bin	101.82366666667	0
bin	101.857	0
bin	101.89033333333	0
bin	101.92366666667	0
bin	101.957	0
bin	101.99033333333	0
bin	102.02366666667	0
bin	102.057	0
bin	102.09033333333	0
bin	102.12366666667	0
bin	102.157	0
statistic RandomGeometricGraph.rgnv[29] 	arrivalPerc:histogram
field count 1
field mean 1
field stddev nan
field sum 1
field sqrsum 1
field min 1
field max 1
attr interpolationmode  none
attr source  count(arrival)
attr title  "arrival perc, histogram"
bin	-INF	0
bin	0	0
bin	1	1
bin	2	0
statistic RandomGeometricGraph.rgnv[30] 	arrivalTime:histogram
field count 1
field mean 219.475
field stddev nan
field sum 219.475
field sqrsum 48169.275625
field min 219.475
field max 219.475
attr interpolationmode  none
attr source  arrivalTime
attr title  "arrival time, histogram"
bin	-INF	0
bin	218.975	0
bin	219.00833333333	0
bin	219.04166666667	0
bin	219.075	0
bin	219.10833333333	0
bin	219.14166666667	0
bin	219.175	0
bin	219.20833333333	0
bin	219.24166666667	0
bin	219.275	0
bin	219.30833333333	0
bin	219.34166666667	0
bin	219.375	0
bin	219.40833333333	0
bin	219.44166666667	0
bin	219.475	1
bin	219.50833333333	0
bin	219.54166666667	0
bin	219.575	0
bin	219.60833333333	0
bin	219.64166666667	0
bin	219.675	0
bin	219.70833333333	0
bin	219.74166666667	0
bin	219.775	0
bin	219.80833333333	0
bin	219.84166666667	0
bin	219.875	0
bin	219.90833333333	0
bin	219.94166666667	0
bin	219.975	0
statistic RandomGeometricGraph.rgnv[30] 	arrivalPerc:histogram
field count 1
field mean 1
field stddev nan
field sum 1
field sqrsum 1
field min 1
field max 1
attr interpolationmode  none
attr source  count(arrival)
attr title  "arrival perc, histogram"
bin	-INF	0
bin	0	0
bin	1	1
bin	2	0
statistic RandomGeometricGraph.rgnv[31] 	arrivalTime:histogram
field count 1
field mean 84.426
field stddev nan
field sum 84.426
field sqrsum 7127.749476
field min 84.426
field max 84.426
attr interpolationmode  none
attr source  arrivalTime
attr title  "arrival time, histogram"
bin	-INF	0
bin	83.926	0
bin	83.959333333333	0
bin	83.992666666667	0
bin	84.026	0
bin	84.059333333333	0
bin	84.092666666667	0
bin	84.126	0
bin	84.159333333333	0
bin	84.192666666667	0
bin	84.226	0
bin	84.259333333333	0
bin	84.292666666667	0
bin	84.326	0
bin	84.359333333333	0
bin	84.392666666667	0
bin	84.426	1
bin	84.459333333333	0
bin	84.492666666667	0
bin	84.526	0
bin	84.559333333333	0
bin	84.592666666667	0
bin	84.626	0
bin	84.659333333333	0
bin	84.692666666667	0
bin	84.726	0
bin	84.759333333333	0
bin	84.792666666667	0
bin	84.826	0
bin	84.859333333333	0
bin	84.892666666667	0
bin	84.926	0
statistic RandomGeometricGraph.rgnv[31] 	arrivalPerc:histogram
field count 1
field mean 1
field stddev nan
field sum 1
field sqrsum 1
field min 1
field max 1
attr interpolationmode  none
attr source  count(arrival)
attr title  "arrival perc, histogram"
bin	-INF	0
bin	0	0
bin	1	1
bin	2	0
statistic RandomGeometricGraph.rgnv[32] 	arrivalTime:histogram
field count 1
field mean 238.38
field stddev nan
field sum 238.38
field sqrsum 56825.0244
field min 238.38
field max 238.38
attr interpolationmode  none
attr source  arrivalTime
attr title  "arrival time, histogram"
bin	-INF	0
bin	237.88	0
bin	237.91333333333	0
bin	237.94666666667	0
bin	237.98	0
bin	238.01333333333	0
bin	238.04666666667	0
bin	238.08	0
bin	238.11333333333	0
bin	238.14666666667	0
bin	238.18	0
bin	238.21333333333	0
bin	238.24666666667	0
bin	238.28	0
bin	238.31333333333	0
bin	238.34666666667	0
bin	238.38	1
bin	238.41333333333	0
bin	238.44666666667	0
bin	238.48	0
bin	238.51333333333	0
bin	238.54666666667	0
bin	238.58	0
bin	238.61333333333	0
bin	238.64666666667	0
bin	238.68	0
bin	238.71333333333	0
bin	238.74666666667	0
bin	238.78	0
bin	238.81333333333	0
bin	238.84666666667	0
bin	238.88	0
statistic RandomGeometricGraph.rgnv[32] 	arrivalPerc:histogram
field count 1
field mean 1
field stddev nan
field sum 1
field sqrsum 1
field min 1
field max 1
attr interpolationmode  none
attr source  count(arrival)
attr title  "arrival perc, histogram"
bin	-INF	0
bin	0	0
bin	1	1
bin	2	0
statistic RandomGeometricGraph.rgnv[33] 	arrivalTime:histogram
field count 1
field mean 123.878
field stddev nan
field sum 123.878
field sqrsum 15345.758884
field min 123.878
field max 123.878
attr interpolationmode  none
attr source  arrivalTime
attr title  "arrival time, histogram"
bin	-INF	0
bin	123.378	0
bin	123.41133333333	0
bin	123.44466666667	0
bin	123.478	0
bin	123.51133333333	0
bin	123.54466666667	0
bin	123.578	0
bin	123.61133333333	0
bin	123.64466666667	0
bin	123.678	0
bin	123.71133333333	0
bin	123.74466666667	0
bin	123.778	0
bin	123.81133333333	0
bin	123.84466666667	0
bin	123.878	1
bin	123.91133333333	0
bin	123.94466666667	0
bin	123.978	0
bin	124.01133333333	0
bin	124.04466666667	0
bin	124.078	0
bin	124.11133333333	0
bin	124.14466666667	0
bin	124.178	0
bin	124.21133333333	0
bin	124.24466666667	0
bin	124.278	0
bin	124.31133333333	0
bin	124.34466666667	0
bin	124.378	0
statistic RandomGeometricGraph.rgnv[33] 	arrivalPerc:histogram
field count 1
field mean 1
field stddev nan
field sum 1
field sqrsum 1
field min 1
field max 1
attr interpolationmode  none
attr source  count(arrival)
attr title  "arrival perc, histogram"
bin	-INF	0
bin	0	0
bin	1	1
bin	2	0
statistic RandomGeometricGraph.rgnv[34] 	arrivalTime:histogram
field count 1
field mean 138.33
field stddev nan
field sum 138.33
field sqrsum 19135.1889
field min 138.33
field max 138.33
attr interpolationmode  none
attr source  arrivalTime
attr title  "arrival time, histogram"
bin	-INF	0
bin	137.83	0
bin	137.86333333333	0
bin	137.89666666667	0
bin	137.93	0
bin	137.96333333333	0
bin	137.99666666667	0
bin	138.03	0
bin	138.06333333333	0
bin	138.09666666667	0
bin	138.13	0
bin	138.16333333333	0
bin	138.19666666667	0
bin	138.23	0
bin	138.26333333333	0
bin	138.29666666667	0
bin	138.33	1
bin	138.36333333333	0
bin	138.39666666667	0
bin	138.43	0
bin	138.46333333333	0
bin	138.49666666667	0
bin	138.53	0
bin	138.56333333333	0
bin	138.59666666667	0
bin	138.63	0
bin	138.66333333333	0
bin	138.69666666667	0
bin	138.73	0
bin	138.76333333333	0
bin	138.79666666667	0
bin	138.83	0
statistic RandomGeometricGraph.rgnv[34] 	arrivalPerc:histogram
field count 1
field mean 1
field stddev nan
field sum 1
field sqrsum 1
field min 1
field max 1
attr interpolationmode  none
attr source  count(arrival)
attr title  "arrival perc, histogram"
bin	-INF	0
bin	0	0
bin	1	1
bin	2	0
statistic RandomGeometricGraph.rgnv[35] 	arrivalTime:histogram
field count 1
field mean 106.657
field stddev nan
field sum 106.657
field sqrsum 11375.715649
field min 106.657
field max 106.657
attr interpolationmode  none
attr source  arrivalTime
attr title  "arrival time, histogram"
bin	-INF	0
bin	106.157	0
bin	106.19033333333	0
bin	106.22366666667	0
bin	106.257	0
bin	106.29033333333	0
bin	106.32366666667	0
bin	106.357	0
bin	106.39033333333	0
bin	106.42366666667	0
bin	106.457	0
bin	106.49033333333	0
bin	106.52366666667	0
bin	106.557	0
bin	106.59033333333	0
bin	106.62366666667	0
bin	106.657	1
bin	106.69033333333	0
bin	106.72366666667	0
bin	106.757	0
bin	106.79033333333	0
bin	106.82366666667	0
bin	106.857	0
bin	106.89033333333	0
bin	106.92366666667	0
bin	106.957	0
bin	106.99033333333	0
bin	107.02366666667	0
bin	107.057	0
bin	107.09033333333	0
bin	107.12366666667	0
bin	107.157	0
statistic RandomGeometricGraph.rgnv[35] 	arrivalPerc:histogram
field count 1
field mean 1
field stddev nan
field sum 1
field sqrsum 1
field min 1
field max 1
attr interpolationmode  none
attr source  count(arrival)
attr title  "arrival perc, histogram"
bin	-INF	0
bin	0	0
bin	1	1
bin	2	0
statistic RandomGeometricGraph.rgnv[36] 	arrivalTime:histogram
field count 1
field mean 200.561
field stddev nan
field sum 200.561
field sqrsum 40224.714721
field min 200.561
field max 200.561
attr interpolationmode  none
attr source  arrivalTime
attr title  "arrival time, histogram"
bin	-INF	0
bin	200.061	0
bin	200.09433333333	0
bin	200.12766666667	0
bin	200.161	0
bin	200.19433333333	0
bin	200.22766666667	0
bin	200.261	0
bin	200.29433333333	0
bin	200.32766666667	0
bin	200.361	0
bin	200.39433333333	0
bin	200.42766666667	0
bin	200.461	0
bin	200.49433333333	0
bin	200.52766666667	0
bin	200.561	1
bin	200.59433333333	0
bin	200.62766666667	0
bin	200.661	0
bin	200.69433333333	0
bin	200.72766666667	0
bin	200.761	0
bin	200.79433333333	0
bin	200.82766666667	0
bin	200.861	0
bin	200.89433333333	0
bin	200.92766666667	0
bin	200.961	0
bin	200.99433333333	0
bin	201.02766666667	0
bin	201.061	0
statistic RandomGeometricGraph.rgnv[36] 	arrivalPerc:histogram
field count 1
field mean 1
field stddev nan
field sum 1
field sqrsum 1
field min 1
field max 1
attr interpolationmode  none
attr source  count(arrival)
attr title  "arrival perc, histogram"
bin	-INF	0
bin	0	0
bin	1	1
bin	2	0
statistic RandomGeometricGraph.rgnv[37] 	arrivalTime:histogram
field count 1
field mean 128.888
field stddev nan
field sum 128.888
field sqrsum 16612.116544
field min 128.888
field max 128.888
attr interpolationmode  none
attr source  arrivalTime
attr title  "arrival time, histogram"
bin	-INF	0
bin	128.388	0
bin	128.42133333333	0
bin	128.45466666667	0
bin	128.488	0
bin	128.52133333333	0
bin	128.55466666667	0
bin	128.588	0
bin	128.62133333333	0
bin	128.65466666667	0
bin	128.688	0
bin	128.72133333333	0
bin	128.75466666667	0
bin	128.788	0
bin	128.82133333333	0
bin	128.85466666667	0
bin	128.888	1
bin	128.92133333333	0
bin	128.95466666667	0
bin	128.988	0
bin	129.02133333333	0
bin	129.05466666667	0
bin	129.088	0
bin	129.12133333333	0
bin	129.15466666667	0
bin	129.188	0
bin	129.22133333333	0
bin	129.25466666667	0
bin	129.288	0
bin	129.32133333333	0
bin	129.35466666667	0
bin	129.388	0
statistic RandomGeometricGraph.rgnv[37] 	arrivalPerc:histogram
field count 1
field mean 1
field stddev nan
field sum 1
field sqrsum 1
field min 1
field max 1
attr interpolationmode  none
attr source  count(arrival)
attr title  "arrival perc, histogram"
bin	-INF	0
bin	0	0
bin	1	1
bin	2	0
statistic RandomGeometricGraph.rgnv[38] 	arrivalTime:histogram
field count 1
field mean 118.868
field stddev nan
field sum 118.868
field sqrsum 14129.601424
field min 118.868
field max 118.868
attr interpolationmode  none
attr source  arrivalTime
attr title  "arrival time, histogram"
bin	-INF	0
bin	118.368	0
bin	118.40133333333	0
bin	118.43466666667	0
bin	118.468	0
bin	118.50133333333	0
bin	118.53466666667	0
bin	118.568	0
bin	118.60133333333	0
bin	118.63466666667	0
bin	118.668	0
bin	118.70133333333	0
bin	118.73466666667	0
bin	118.768	0
bin	118.80133333333	0
bin	118.83466666667	0
bin	118.868	1
bin	118.90133333333	0
bin	118.93466666667	0
bin	118.968	0
bin	119.00133333333	0
bin	119.03466666667	0
bin	119.068	0
bin	119.10133333333	0
bin	119.13466666667	0
bin	119.168	0
bin	119.20133333333	0
bin	119.23466666667	0
bin	119.268	0
bin	119.30133333333	0
bin	119.33466666667	0
bin	119.368	0
statistic RandomGeometricGraph.rgnv[38] 	arrivalPerc:histogram
field count 1
field mean 1
field stddev nan
field sum 1
field sqrsum 1
field min 1
field max 1
attr interpolationmode  none
attr source  count(arrival)
attr title  "arrival perc, histogram"
bin	-INF	0
bin	0	0
bin	1	1
bin	2	0
statistic RandomGeometricGraph.rgnv[39] 	arrivalTime:histogram
field count 1
field mean 200.033
field stddev nan
field sum 200.033
field sqrsum 40013.201089
field min 200.033
field max 200.033
attr interpolationmode  none
attr source  arrivalTime
attr title  "arrival time, histogram"
bin	-INF	0
bin	199.533	0
bin	199.56633333333	0
bin	199.59966666667	0
bin	199.633	0
bin	199.66633333333	0
bin	199.69966666667	0
bin	199.733	0
bin	199.76633333333	0
bin	199.79966666667	0
bin	199.833	0
bin	199.86633333333	0
bin	199.89966666667	0
bin	199.933	0
bin	199.96633333333	0
bin	199.99966666667	0
bin	200.033	1
bin	200.06633333333	0
bin	200.09966666667	0
bin	200.133	0
bin	200.16633333333	0
bin	200.19966666667	0
bin	200.233	0
bin	200.26633333333	0
bin	200.29966666667	0
bin	200.333	0
bin	200.36633333333	0
bin	200.39966666667	0
bin	200.433	0
bin	200.46633333333	0
bin	200.49966666667	0
bin	200.533	0
statistic RandomGeometricGraph.rgnv[39] 	arrivalPerc:histogram
field count 1
field mean 1
field stddev nan
field sum 1
field sqrsum 1
field min 1
field max 1
attr interpolationmode  none
attr source  count(arrival)
attr title  "arrival perc, histogram"
bin	-INF	0
bin	0	0
bin	1	1
bin	2	0
statistic RandomGeometricGraph.rgnv[40] 	arrivalTime:histogram
field count 1
field mean 172.792
field stddev nan
field sum 172.792
field sqrsum 29857.075264
field min 172.792
field max 172.792
attr interpolationmode  none
attr source  arrivalTime
attr title  "arrival time, histogram"
bin	-INF	0
bin	172.292	0
bin	172.32533333333	0
bin	172.35866666667	0
bin	172.392	0
bin	172.42533333333	0
bin	172.45866666667	0
bin	172.492	0
bin	172.52533333333	0
bin	172.55866666667	0
bin	172.592	0
bin	172.62533333333	0
bin	172.65866666667	0
bin	172.692	0
bin	172.72533333333	0
bin	172.75866666667	0
bin	172.792	1
bin	172.82533333333	0
bin	172.85866666667	0
bin	172.892	0
bin	172.92533333333	0
bin	172.95866666667	0
bin	172.992	0
bin	173.02533333333	0
bin	173.05866666667	0
bin	173.092	0
bin	173.12533333333	0
bin	173.15866666667	0
bin	173.192	0
bin	173.22533333333	0
bin	173.25866666667	0
bin	173.292	0
statistic RandomGeometricGraph.rgnv[40] 	arrivalPerc:histogram
field count 1
field mean 1
field stddev nan
field sum 1
field sqrsum 1
field min 1
field max 1
attr interpolationmode  none
attr source  count(arrival)
attr title  "arrival perc, histogram"
bin	-INF	0
bin	0	0
bin	1	1
bin	2	0
statistic RandomGeometricGraph.rgnv[41] 	arrivalTime:histogram
field count 1
field mean 133.888
field stddev nan
field sum 133.888
field sqrsum 17925.996544
field min 133.888
field max 133.888
attr interpolationmode  none
attr source  arrivalTime
attr title  "arrival time, histogram"
bin	-INF	0
bin	133.388	0
bin	133.42133333333	0
bin	133.45466666667	0
bin	133.488	0
bin	133.52133333333	0
bin	133.55466666667	0
bin	133.588	0
bin	133.62133333333	0
bin	133.65466666667	0
bin	133.688	0
bin	133.72133333333	0
bin	133.75466666667	0
bin	133.788	0
bin	133.82133333333	0
bin	133.85466666667	0
bin	133.888	1
bin	133.92133333333	0
bin	133.95466666667	0
bin	133.988	0
bin	134.02133333333	0
bin	134.05466666667	0
bin	134.088	0
bin	134.12133333333	0
bin	134.15466666667	0
bin	134.188	0
bin	134.22133333333	0
bin	134.25466666667	0
bin	134.288	0
bin	134.32133333333	0
bin	134.35466666667	0
bin	134.388	0
statistic RandomGeometricGraph.rgnv[41] 	arrivalPerc:histogram
field count 1
field mean 1
field stddev nan
field sum 1
field sqrsum 1
field min 1
field max 1
attr interpolationmode  none
attr source  count(arrival)
attr title  "arrival perc, histogram"
bin	-INF	0
bin	0	0
bin	1	1
bin	2	0
statistic RandomGeometricGraph.rgnv[42] 	arrivalTime:histogram
field count 1
field mean 74.396
field stddev nan
field sum 74.396
field sqrsum 5534.764816
field min 74.396
field max 74.396
attr interpolationmode  none
attr source  arrivalTime
attr title  "arrival time, histogram"
bin	-INF	0
bin	73.896	0
bin	73.929333333333	0
bin	73.962666666667	0
bin	73.996	0
bin	74.029333333333	0
bin	74.062666666667	0
bin	74.096	0
bin	74.129333333333	0
bin	74.162666666667	0
bin	74.196	0
bin	74.229333333333	0
bin	74.262666666667	0
bin	74.296	0
bin	74.329333333333	0
bin	74.362666666667	0
bin	74.396	1
bin	74.429333333333	0
bin	74.462666666667	0
bin	74.496	0
bin	74.529333333333	0
bin	74.562666666667	0
bin	74.596	0
bin	74.629333333333	0
bin	74.662666666667	0
bin	74.696	0
bin	74.729333333333	0
bin	74.762666666667	0
bin	74.796	0
bin	74.829333333333	0
bin	74.862666666667	0
bin	74.896	0
statistic RandomGeometricGraph.rgnv[42] 	arrivalPerc:histogram
field count 1
field mean 1
field stddev nan
field sum 1
field sqrsum 1
field min 1
field max 1
attr interpolationmode  none
attr source  count(arrival)
attr title  "arrival perc, histogram"
bin	-INF	0
bin	0	0
bin	1	1
bin	2	0
statistic RandomGeometricGraph.rgnv[43] 	arrivalTime:histogram
field count 1
field mean 138.33
field stddev nan
field sum 138.33
field sqrsum 19135.1889
field min 138.33
field max 138.33
attr interpolationmode  none
attr source  arrivalTime
attr title  "arrival time, histogram"
bin	-INF	0
bin	137.83	0
bin	137.86333333333	0
bin	137.89666666667	0
bin	137.93	0
bin	137.96333333333	0
bin	137.99666666667	0
bin	138.03	0
bin	138.06333333333	0
bin	138.09666666667	0
bin	138.13	0
bin	138.16333333333	0
bin	138.19666666667	0
bin	138.23	0
bin	138.26333333333	0
bin	138.29666666667	0
bin	138.33	1
bin	138.36333333333	0
bin	138.39666666667	0
bin	138.43	0
bin	138.46333333333	0
bin	138.49666666667	0
bin	138.53	0
bin	138.56333333333	0
bin	138.59666666667	0
bin	138.63	0
bin	138.66333333333	0
bin	138.69666666667	0
bin	138.73	0
bin	138.76333333333	0
bin	138.79666666667	0
bin	138.83	0
statistic RandomGeometricGraph.rgnv[43] 	arrivalPerc:histogram
field count 1
field mean 1
field stddev nan
field sum 1
field sqrsum 1
field min 1
field max 1
attr interpolationmode  none
attr source  count(arrival)
attr title  "arrival perc, histogram"
bin	-INF	0
bin	0	0
bin	1	1
bin	2	0
statistic RandomGeometricGraph.rgnv[44] 	arrivalTime:histogram
field count 1
field mean 203.34
field stddev nan
field sum 203.34
field sqrsum 41347.1556
field min 203.34
field max 203.34
attr interpolationmode  none
attr source  arrivalTime
attr title  "arrival time, histogram"
bin	-INF	0
bin	202.84	0
bin	202.87333333333	0
bin	202.90666666667	0
bin	202.94	0
bin	202.97333333333	0
bin	203.00666666667	0
bin	203.04	0
bin	203.07333333333	0
bin	203.10666666667	0
bin	203.14	0
bin	203.17333333333	0
bin	203.20666666667	0
bin	203.24	0
bin	203.27333333333	0
bin	203.30666666667	0
bin	203.34	1
bin	203.37333333333	0
bin	203.40666666667	0
bin	203.44	0
bin	203.47333333333	0
bin	203.50666666667	0
bin	203.54	0
bin	203.57333333333	0
bin	203.60666666667	0
bin	203.64	0
bin	203.67333333333	0
bin	203.70666666667	0
bin	203.74	0
bin	203.77333333333	0
bin	203.80666666667	0
bin	203.84	0
statistic RandomGeometricGraph.rgnv[44] 	arrivalPerc:histogram
field count 1
field mean 1
field stddev nan
field sum 1
field sqrsum 1
field min 1
field max 1
attr interpolationmode  none
attr source  count(arrival)
attr title  "arrival perc, histogram"
bin	-INF	0
bin	0	0
bin	1	1
bin	2	0
statistic RandomGeometricGraph.rgnv[45] 	arrivalTime:histogram
field count 1
field mean 118.868
field stddev nan
field sum 118.868
field sqrsum 14129.601424
field min 118.868
field max 118.868
attr interpolationmode  none
attr source  arrivalTime
attr title  "arrival time, histogram"
bin	-INF	0
bin	118.368	0
bin	118.40133333333	0
bin	118.43466666667	0
bin	118.468	0
bin	118.50133333333	0
bin	118.53466666667	0
bin	118.568	0
bin	118.60133333333	0
bin	118.63466666667	0
bin	118.668	0
bin	118.70133333333	0
bin	118.73466666667	0
bin	118.768	0
bin	118.80133333333	0
bin	118.83466666667	0
bin	118.868	1
bin	118.90133333333	0
bin	118.93466666667	0
bin	118.968	0
bin	119.00133333333	0
bin	119.03466666667	0
bin	119.068	0
bin	119.10133333333	0
bin	119.13466666667	0
bin	119.168	0
bin	119.20133333333	0
bin	119.23466666667	0
bin	119.268	0
bin	119.30133333333	0
bin	119.33466666667	0
bin	119.368	0
statistic RandomGeometricGraph.rgnv[45] 	arrivalPerc:histogram
field count 1
field mean 1
field stddev nan
field sum 1
field sqrsum 1
field min 1
field max 1
attr interpolationmode  none
attr source  count(arrival)
attr title  "arrival perc, histogram"
bin	-INF	0
bin	0	0
bin	1	1
bin	2	0
statistic RandomGeometricGraph.rgnv[46] 	arrivalTime:histogram
field count 1
field mean 210.571
field stddev nan
field sum 210.571
field sqrsum 44340.146041
field min 210.571
field max 210.571
attr interpolationmode  none
attr source  arrivalTime
attr title  "arrival time, histogram"
bin	-INF	0
bin	210.071	0
bin	210.10433333333	0
bin	210.13766666667	0
bin	210.171	0
bin	210.20433333333	0
bin	210.23766666667	0
bin	210.271	0
bin	210.30433333333	0
bin	210.33766666667	0
bin	210.371	0
bin	210.40433333333	0
bin	210.43766666667	0
bin	210.471	0
bin	210.50433333333	0
bin	210.53766666667	0
bin	210.571	1
bin	210.60433333333	0
bin	210.63766666667	0
bin	210.671	0
bin	210.70433333333	0
bin	210.73766666667	0
bin	210.771	0
bin	210.80433333333	0
bin	210.83766666667	0
bin	210.871	0
bin	210.90433333333	0
bin	210.93766666667	0
bin	210.971	0
bin	211.00433333333	0
bin	211.03766666667	0
bin	211.071	0
statistic RandomGeometricGraph.rgnv[46] 	arrivalPerc:histogram
field count 1
field mean 1
field stddev nan
field sum 1
field sqrsum 1
field min 1
field max 1
attr interpolationmode  none
attr source  count(arrival)
attr title  "arrival perc, histogram"
bin	-INF	0
bin	0	0
bin	1	1
bin	2	0
statistic RandomGeometricGraph.rgnv[47] 	arrivalTime:histogram
field count 1
field mean 210.581
field stddev nan
field sum 210.581
field sqrsum 44344.357561
field min 210.581
field max 210.581
attr interpolationmode  none
attr source  arrivalTime
attr title  "arrival time, histogram"
bin	-INF	0
bin	210.081	0
bin	210.11433333333	0
bin	210.14766666667	0
bin	210.181	0
bin	210.21433333333	0
bin	210.24766666667	0
bin	210.281	0
bin	210.31433333333	0
bin	210.34766666667	0
bin	210.381	0
bin	210.41433333333	0
bin	210.44766666667	0
bin	210.481	0
bin	210.51433333333	0
bin	210.54766666667	0
bin	210.581	1
bin	210.61433333333	0
bin	210.64766666667	0
bin	210.681	0
bin	210.71433333333	0
bin	210.74766666667	0
bin	210.781	0
bin	210.81433333333	0
bin	210.84766666667	0
bin	210.881	0
bin	210.91433333333	0
bin	210.94766666667	0
bin	210.981	0
bin	211.01433333333	0
bin	211.04766666667	0
bin	211.081	0
statistic RandomGeometricGraph.rgnv[47] 	arrivalPerc:histogram
field count 1
field mean 1
field stddev nan
field sum 1
field sqrsum 1
field min 1
field max 1
attr interpolationmode  none
attr source  count(arrival)
attr title  "arrival perc, histogram"
bin	-INF	0
bin	0	0
bin	1	1
bin	2	0
statistic RandomGeometricGraph.rgnv[48] 	arrivalTime:histogram
field count 1
field mean 168.35
field stddev nan
field sum 168.35
field sqrsum 28341.7225
field min 168.35
field max 168.35
attr interpolationmode  none
attr source  arrivalTime
attr title  "arrival time, histogram"
bin	-INF	0
bin	167.85	0
bin	167.88333333333	0
bin	167.91666666667	0
bin	167.95	0
bin	167.98333333333	0
bin	168.01666666667	0
bin	168.05	0
bin	168.08333333333	0
bin	168.11666666667	0
bin	168.15	0
bin	168.18333333333	0
bin	168.21666666667	0
bin	168.25	0
bin	168.28333333333	0
bin	168.31666666667	0
bin	168.35	1
bin	168.38333333333	0
bin	168.41666666667	0
bin	168.45	0
bin	168.48333333333	0
bin	168.51666666667	0
bin	168.55	0
bin	168.58333333333	0
bin	168.61666666667	0
bin	168.65	0
bin	168.68333333333	0
bin	168.71666666667	0
bin	168.75	0
bin	168.78333333333	0
bin	168.81666666667	0
bin	168.85	0
statistic RandomGeometricGraph.rgnv[48] 	arrivalPerc:histogram
field count 1
field mean 1
field stddev nan
field sum 1
field sqrsum 1
field min 1
field max 1
attr interpolationmode  none
attr source  count(arrival)
attr title  "arrival perc, histogram"
bin	-INF	0
bin	0	0
bin	1	1
bin	2	0
statistic RandomGeometricGraph.rgnv[49] 	arrivalTime:histogram
field count 1
field mean 111.667
field stddev nan
field sum 111.667
field sqrsum 12469.518889
field min 111.667
field max 111.667
attr interpolationmode  none
attr source  arrivalTime
attr title  "arrival time, histogram"
bin	-INF	0
bin	111.167	0
bin	111.20033333333	0
bin	111.23366666667	0
bin	111.267	0
bin	111.30033333333	0
bin	111.33366666667	0
bin	111.367	0
bin	111.40033333333	0
bin	111.43366666667	0
bin	111.467	0
bin	111.50033333333	0
bin	111.53366666667	0
bin	111.567	0
bin	111.60033333333	0
bin	111.63366666667	0
bin	111.667	1
bin	111.70033333333	0
bin	111.73366666667	0
bin	111.767	0
bin	111.80033333333	0
bin	111.83366666667	0
bin	111.867	0
bin	111.90033333333	0
bin	111.93366666667	0
bin	111.967	0
bin	112.00033333333	0
bin	112.03366666667	0
bin	112.067	0
bin	112.10033333333	0
bin	112.13366666667	0
bin	112.167	0
statistic RandomGeometricGraph.rgnv[49] 	arrivalPerc:histogram
field count 1
field mean 1
field stddev nan
field sum 1
field sqrsum 1
field min 1
field max 1
attr interpolationmode  none
attr source  count(arrival)
attr title  "arrival perc, histogram"
bin	-INF	0
bin	0	0
bin	1	1
bin	2	0
statistic RandomGeometricGraph.rgnv[50] 	arrivalTime:histogram
field count 1
field mean 62.175
field stddev nan
field sum 62.175
field sqrsum 3865.730625
field min 62.175
field max 62.175
attr interpolationmode  none
attr source  arrivalTime
attr title  "arrival time, histogram"
bin	-INF	0
bin	61.675	0
bin	61.708333333333	0
bin	61.741666666667	0
bin	61.775	0
bin	61.808333333333	0
bin	61.841666666667	0
bin	61.875	0
bin	61.908333333333	0
bin	61.941666666667	0
bin	61.975	0
bin	62.008333333333	0
bin	62.041666666667	0
bin	62.075	0
bin	62.108333333333	0
bin	62.141666666667	0
bin	62.175	1
bin	62.208333333333	0
bin	62.241666666667	0
bin	62.275	0
bin	62.308333333333	0
bin	62.341666666667	0
bin	62.375	0
bin	62.408333333333	0
bin	62.441666666667	0
bin	62.475	0
bin	62.508333333333	0
bin	62.541666666667	0
bin	62.575	0
bin	62.608333333333	0
bin	62.641666666667	0
bin	62.675	0
statistic RandomGeometricGraph.rgnv[50] 	arrivalPerc:histogram
field count 1
field mean 1
field stddev nan
field sum 1
field sqrsum 1
field min 1
field max 1
attr interpolationmode  none
attr source  count(arrival)
attr title  "arrival perc, histogram"
bin	-INF	0
bin	0	0
bin	1	1
bin	2	0
statistic RandomGeometricGraph.rgnv[51] 	arrivalTime:histogram
field count 1
field mean 165.561
field stddev nan
field sum 165.561
field sqrsum 27410.444721
field min 165.561
field max 165.561
attr interpolationmode  none
attr source  arrivalTime
attr title  "arrival time, histogram"
bin	-INF	0
bin	165.061	0
bin	165.09433333333	0
bin	165.12766666667	0
bin	165.161	0
bin	165.19433333333	0
bin	165.22766666667	0
bin	165.261	0
bin	165.29433333333	0
bin	165.32766666667	0
bin	165.361	0
bin	165.39433333333	0
bin	165.42766666667	0
bin	165.461	0
bin	165.49433333333	0
bin	165.52766666667	0
bin	165.561	1
bin	165.59433333333	0
bin	165.62766666667	0
bin	165.661	0
bin	165.69433333333	0
bin	165.72766666667	0
bin	165.761	0
bin	165.79433333333	0
bin	165.82766666667	0
bin	165.861	0
bin	165.89433333333	0
bin	165.92766666667	0
bin	165.961	0
bin	165.99433333333	0
bin	166.02766666667	0
bin	166.061	0
statistic RandomGeometricGraph.rgnv[51] 	arrivalPerc:histogram
field count 1
field mean 1
field stddev nan
field sum 1
field sqrsum 1
field min 1
field max 1
attr interpolationmode  none
attr source  count(arrival)
attr title  "arrival perc, histogram"
bin	-INF	0
bin	0	0
bin	1	1
bin	2	0
statistic RandomGeometricGraph.rgnv[52] 	arrivalTime:histogram
field count 1
field mean 176.109
field stddev nan
field sum 176.109
field sqrsum 31014.379881
field min 176.109
field max 176.109
attr interpolationmode  none
attr source  arrivalTime
attr title  "arrival time, histogram"
bin	-INF	0
bin	175.609	0
bin	175.64233333333	0
bin	175.67566666667	0
bin	175.709	0
bin	175.74233333333	0
bin	175.77566666667	0
bin	175.809	0
bin	175.84233333333	0
bin	175.87566666667	0
bin	175.909	0
bin	175.94233333333	0
bin	175.97566666667	0
bin	176.009	0
bin	176.04233333333	0
bin	176.07566666667	0
bin	176.109	1
bin	176.14233333333	0
bin	176.17566666667	0
bin	176.209	0
bin	176.24233333333	0
bin	176.27566666667	0
bin	176.309	0
bin	176.34233333333	0
bin	176.37566666667	0
bin	176.409	0
bin	176.44233333333	0
bin	176.47566666667	0
bin	176.509	0
bin	176.54233333333	0
bin	176.57566666667	0
bin	176.609	0
statistic RandomGeometricGraph.rgnv[52] 	arrivalPerc:histogram
field count 1
field mean 1
field stddev nan
field sum 1
field sqrsum 1
field min 1
field max 1
attr interpolationmode  none
attr source  count(arrival)
attr title  "arrival perc, histogram"
bin	-INF	0
bin	0	0
bin	1	1
bin	2	0
statistic RandomGeometricGraph.rgnv[53] 	arrivalTime:histogram
field count 1
field mean 245.023
field stddev nan
field sum 245.023
field sqrsum 60036.270529
field min 245.023
field max 245.023
attr interpolationmode  none
attr source  arrivalTime
attr title  "arrival time, histogram"
bin	-INF	0
bin	244.523	0
bin	244.55633333333	0
bin	244.58966666667	0
bin	244.623	0
bin	244.65633333333	0
bin	244.68966666667	0
bin	244.723	0
bin	244.75633333333	0
bin	244.78966666667	0
bin	244.823	0
bin	244.85633333333	0
bin	244.88966666667	0
bin	244.923	0
bin	244.95633333333	0
bin	244.98966666667	0
bin	245.023	1
bin	245.05633333333	0
bin	245.08966666667	0
bin	245.123	0
bin	245.15633333333	0
bin	245.18966666667	0
bin	245.223	0
bin	245.25633333333	0
bin	245.28966666667	0
bin	245.323	0
bin	245.35633333333	0
bin	245.38966666667	0
bin	245.423	0
bin	245.45633333333	0
bin	245.48966666667	0
bin	245.523	0
statistic RandomGeometricGraph.rgnv[53] 	arrivalPerc:histogram
field count 1
field mean 1
field stddev nan
field sum 1
field sqrsum 1
field min 1
field max 1
attr interpolationmode  none
attr source  count(arrival)
attr title  "arrival perc, histogram"
bin	-INF	0
bin	0	0
bin	1	1
bin	2	0
statistic RandomGeometricGraph.rgnv[54] 	arrivalTime:histogram
field count 1
field mean 185.023
field stddev nan
field sum 185.023
field sqrsum 34233.510529
field min 185.023
field max 185.023
attr interpolationmode  none
attr source  arrivalTime
attr title  "arrival time, histogram"
bin	-INF	0
bin	184.523	0
bin	184.55633333333	0
bin	184.58966666667	0
bin	184.623	0
bin	184.65633333333	0
bin	184.68966666667	0
bin	184.723	0
bin	184.75633333333	0
bin	184.78966666667	0
bin	184.823	0
bin	184.85633333333	0
bin	184.88966666667	0
bin	184.923	0
bin	184.95633333333	0
bin	184.98966666667	0
bin	185.023	1
bin	185.05633333333	0
bin	185.08966666667	0
bin	185.123	0
bin	185.15633333333	0
bin	185.18966666667	0
bin	185.223	0
bin	185.25633333333	0
bin	185.28966666667	0
bin	185.323	0
bin	185.35633333333	0
bin	185.38966666667	0
bin	185.423	0
bin	185.45633333333	0
bin	185.48966666667	0
bin	185.523	0
statistic RandomGeometricGraph.rgnv[54] 	arrivalPerc:histogram
field count 1
field mean 1
field stddev nan
field sum 1
field sqrsum 1
field min 1
field max 1
attr interpolationmode  none
attr source  count(arrival)
attr title  "arrival perc, histogram"
bin	-INF	0
bin	0	0
bin	1	1
bin	2	0
statistic RandomGeometricGraph.rgnv[55] 	arrivalTime:histogram
field count 1
field mean 138.878
field stddev nan
field sum 138.878
field sqrsum 19287.098884
field min 138.878
field max 138.878
attr interpolationmode  none
attr source  arrivalTime
attr title  "arrival time, histogram"
bin	-INF	0
bin	138.378	0
bin	138.41133333333	0
bin	138.44466666667	0
bin	138.478	0
bin	138.51133333333	0
bin	138.54466666667	0
bin	138.578	0
bin	138.61133333333	0
bin	138.64466666667	0
bin	138.678	0
bin	138.71133333333	0
bin	138.74466666667	0
bin	138.778	0
bin	138.81133333333	0
bin	138.84466666667	0
bin	138.878	1
bin	138.91133333333	0
bin	138.94466666667	0
bin	138.978	0
bin	139.01133333333	0
bin	139.04466666667	0
bin	139.078	0
bin	139.11133333333	0
bin	139.14466666667	0
bin	139.178	0
bin	139.21133333333	0
bin	139.24466666667	0
bin	139.278	0
bin	139.31133333333	0
bin	139.34466666667	0
bin	139.378	0
statistic RandomGeometricGraph.rgnv[55] 	arrivalPerc:histogram
field count 1
field mean 1
field stddev nan
field sum 1
field sqrsum 1
field min 1
field max 1
attr interpolationmode  none
attr source  count(arrival)
attr title  "arrival perc, histogram"
bin	-INF	0
bin	0	0
bin	1	1
bin	2	0
statistic RandomGeometricGraph.rgnv[56] 	arrivalTime:histogram
field count 1
field mean 79.406
field stddev nan
field sum 79.406
field sqrsum 6305.312836
field min 79.406
field max 79.406
attr interpolationmode  none
attr source  arrivalTime
attr title  "arrival time, histogram"
bin	-INF	0
bin	78.906	0
bin	78.939333333333	0
bin	78.972666666667	0
bin	79.006	0
bin	79.039333333333	0
bin	79.072666666667	0
bin	79.106	0
bin	79.139333333333	0
bin	79.172666666667	0
bin	79.206	0
bin	79.239333333333	0
bin	79.272666666667	0
bin	79.306	0
bin	79.339333333333	0
bin	79.372666666667	0
bin	79.406	1
bin	79.439333333333	0
bin	79.472666666667	0
bin	79.506	0
bin	79.539333333333	0
bin	79.572666666667	0
bin	79.606	0
bin	79.639333333333	0
bin	79.672666666667	0
bin	79.706	0
bin	79.739333333333	0
bin	79.772666666667	0
bin	79.806	0
bin	79.839333333333	0
bin	79.872666666667	0
bin	79.906	0
statistic RandomGeometricGraph.rgnv[56] 	arrivalPerc:histogram
field count 1
field mean 1
field stddev nan
field sum 1
field sqrsum 1
field min 1
field max 1
attr interpolationmode  none
attr source  count(arrival)
attr title  "arrival perc, histogram"
bin	-INF	0
bin	0	0
bin	1	1
bin	2	0
statistic RandomGeometricGraph.rgnv[57] 	arrivalTime:histogram
field count 1
field mean 91.637
field stddev nan
field sum 91.637
field sqrsum 8397.339769
field min 91.637
field max 91.637
attr interpolationmode  none
attr source  arrivalTime
attr title  "arrival time, histogram"
bin	-INF	0
bin	91.137	0
bin	91.170333333333	0
bin	91.203666666667	0
bin	91.237	0
bin	91.270333333333	0
bin	91.303666666667	0
bin	91.337	0
bin	91.370333333333	0
bin	91.403666666667	0
bin	91.437	0
bin	91.470333333333	0
bin	91.503666666667	0
bin	91.537	0
bin	91.570333333333	0
bin	91.603666666667	0
bin	91.637	1
bin	91.670333333333	0
bin	91.703666666667	0
bin	91.737	0
bin	91.770333333333	0
bin	91.803666666667	0
bin	91.837	0
bin	91.870333333333	0
bin	91.903666666667	0
bin	91.937	0
bin	91.970333333333	0
bin	92.003666666667	0
bin	92.037	0
bin	92.070333333333	0
bin	92.103666666667	0
bin	92.137	0
statistic RandomGeometricGraph.rgnv[57] 	arrivalPerc:histogram
field count 1
field mean 1
field stddev nan
field sum 1
field sqrsum 1
field min 1
field max 1
attr interpolationmode  none
attr source  count(arrival)
attr title  "arrival perc, histogram"
bin	-INF	0
bin	0	0
bin	1	1
bin	2	0
statistic RandomGeometricGraph.rgnv[58] 	arrivalTime:histogram
field count 1
field mean 138.34
field stddev nan
field sum 138.34
field sqrsum 19137.9556
field min 138.34
field max 138.34
attr interpolationmode  none
attr source  arrivalTime
attr title  "arrival time, histogram"
bin	-INF	0
bin	137.84	0
bin	137.87333333333	0
bin	137.90666666667	0
bin	137.94	0
bin	137.97333333333	0
bin	138.00666666667	0
bin	138.04	0
bin	138.07333333333	0
bin	138.10666666667	0
bin	138.14	0
bin	138.17333333333	0
bin	138.20666666667	0
bin	138.24	0
bin	138.27333333333	0
bin	138.30666666667	0
bin	138.34	1
bin	138.37333333333	0
bin	138.40666666667	0
bin	138.44	0
bin	138.47333333333	0
bin	138.50666666667	0
bin	138.54	0
bin	138.57333333333	0
bin	138.60666666667	0
bin	138.64	0
bin	138.67333333333	0
bin	138.70666666667	0
bin	138.74	0
bin	138.77333333333	0
bin	138.80666666667	0
bin	138.84	0
statistic RandomGeometricGraph.rgnv[58] 	arrivalPerc:histogram
field count 1
field mean 1
field stddev nan
field sum 1
field sqrsum 1
field min 1
field max 1
attr interpolationmode  none
attr source  count(arrival)
attr title  "arrival perc, histogram"
bin	-INF	0
bin	0	0
bin	1	1
bin	2	0
statistic RandomGeometricGraph.rgnv[59] 	arrivalTime:histogram
field count 1
field mean 91.637
field stddev nan
field sum 91.637
field sqrsum 8397.339769
field min 91.637
field max 91.637
attr interpolationmode  none
attr source  arrivalTime
attr title  "arrival time, histogram"
bin	-INF	0
bin	91.137	0
bin	91.170333333333	0
bin	91.203666666667	0
bin	91.237	0
bin	91.270333333333	0
bin	91.303666666667	0
bin	91.337	0
bin	91.370333333333	0
bin	91.403666666667	0
bin	91.437	0
bin	91.470333333333	0
bin	91.503666666667	0
bin	91.537	0
bin	91.570333333333	0
bin	91.603666666667	0
bin	91.637	1
bin	91.670333333333	0
bin	91.703666666667	0
bin	91.737	0
bin	91.770333333333	0
bin	91.803666666667	0
bin	91.837	0
bin	91.870333333333	0
bin	91.903666666667	0
bin	91.937	0
bin	91.970333333333	0
bin	92.003666666667	0
bin	92.037	0
bin	92.070333333333	0
bin	92.103666666667	0
bin	92.137	0
statistic RandomGeometricGraph.rgnv[59] 	arrivalPerc:histogram
field count 1
field mean 1
field stddev nan
field sum 1
field sqrsum 1
field min 1
field max 1
attr interpolationmode  none
attr source  count(arrival)
attr title  "arrival perc, histogram"
bin	-INF	0
bin	0	0
bin	1	1
bin	2	0
statistic RandomGeometricGraph.rgnv[60] 	arrivalTime:histogram
field count 1
field mean 192.264
field stddev nan
field sum 192.264
field sqrsum 36965.445696
field min 192.264
field max 192.264
attr interpolationmode  none
attr source  arrivalTime
attr title  "arrival time, histogram"
bin	-INF	0
bin	191.764	0
bin	191.79733333333	0
bin	191.83066666667	0
bin	191.864	0
bin	191.89733333333	0
bin	191.93066666667	0
bin	191.964	0
bin	191.99733333333	0
bin	192.03066666667	0
bin	192.064	0
bin	192.09733333333	0
bin	192.13066666667	0
bin	192.164	0
bin	192.19733333333	0
bin	192.23066666667	0
bin	192.264	1
bin	192.29733333333	0
bin	192.33066666667	0
bin	192.364	0
bin	192.39733333333	0
bin	192.43066666667	0
bin	192.464	0
bin	192.49733333333	0
bin	192.53066666667	0
bin	192.564	0
bin	192.59733333333	0
bin	192.63066666667	0
bin	192.664	0
bin	192.69733333333	0
bin	192.73066666667	0
bin	192.764	0
statistic RandomGeometricGraph.rgnv[60] 	arrivalPerc:histogram
field count 1
field mean 1
field stddev nan
field sum 1
field sqrsum 1
field min 1
field max 1
attr interpolationmode  none
attr source  count(arrival)
attr title  "arrival perc, histogram"
bin	-INF	0
bin	0	0
bin	1	1
bin	2	0
statistic RandomGeometricGraph.rgnv[61] 	arrivalTime:histogram
field count 1
field mean 116.089
field stddev nan
field sum 116.089
field sqrsum 13476.655921
field min 116.089
field max 116.089
attr interpolationmode  none
attr source  arrivalTime
attr title  "arrival time, histogram"
bin	-INF	0
bin	115.589	0
bin	115.62233333333	0
bin	115.65566666667	0
bin	115.689	0
bin	115.72233333333	0
bin	115.75566666667	0
bin	115.789	0
bin	115.82233333333	0
bin	115.85566666667	0
bin	115.889	0
bin	115.92233333333	0
bin	115.95566666667	0
bin	115.989	0
bin	116.02233333333	0
bin	116.05566666667	0
bin	116.089	1
bin	116.12233333333	0
bin	116.15566666667	0
bin	116.189	0
bin	116.22233333333	0
bin	116.25566666667	0
bin	116.289	0
bin	116.32233333333	0
bin	116.35566666667	0
bin	116.389	0
bin	116.42233333333	0
bin	116.45566666667	0
bin	116.489	0
bin	116.52233333333	0
bin	116.55566666667	0
bin	116.589	0
statistic RandomGeometricGraph.rgnv[61] 	arrivalPerc:histogram
field count 1
field mean 1
field stddev nan
field sum 1
field sqrsum 1
field min 1
field max 1
attr interpolationmode  none
attr source  count(arrival)
attr title  "arrival perc, histogram"
bin	-INF	0
bin	0	0
bin	1	1
bin	2	0
statistic RandomGeometricGraph.rgnv[62] 	arrivalTime:histogram
field count 1
field mean 49.944
field stddev nan
field sum 49.944
field sqrsum 2494.403136
field min 49.944
field max 49.944
attr interpolationmode  none
attr source  arrivalTime
attr title  "arrival time, histogram"
bin	-INF	0
bin	49.444	0
bin	49.477333333333	0
bin	49.510666666667	0
bin	49.544	0
bin	49.577333333333	0
bin	49.610666666667	0
bin	49.644	0
bin	49.677333333333	0
bin	49.710666666667	0
bin	49.744	0
bin	49.777333333333	0
bin	49.810666666667	0
bin	49.844	0
bin	49.877333333333	0
bin	49.910666666667	0
bin	49.944	1
bin	49.977333333333	0
bin	50.010666666667	0
bin	50.044	0
bin	50.077333333333	0
bin	50.110666666667	0
bin	50.144	0
bin	50.177333333333	0
bin	50.210666666667	0
bin	50.244	0
bin	50.277333333333	0
bin	50.310666666667	0
bin	50.344	0
bin	50.377333333333	0
bin	50.410666666667	0
bin	50.444	0
statistic RandomGeometricGraph.rgnv[62] 	arrivalPerc:histogram
field count 1
field mean 1
field stddev nan
field sum 1
field sqrsum 1
field min 1
field max 1
attr interpolationmode  none
attr source  count(arrival)
attr title  "arrival perc, histogram"
bin	-INF	0
bin	0	0
bin	1	1
bin	2	0
statistic RandomGeometricGraph.rgnv[63] 	arrivalTime:histogram
field count 1
field mean 180.561
field stddev nan
field sum 180.561
field sqrsum 32602.274721
field min 180.561
field max 180.561
attr interpolationmode  none
attr source  arrivalTime
attr title  "arrival time, histogram"
bin	-INF	0
bin	180.061	0
bin	180.09433333333	0
bin	180.12766666667	0
bin	180.161	0
bin	180.19433333333	0
bin	180.22766666667	0
bin	180.261	0
bin	180.29433333333	0
bin	180.32766666667	0
bin	180.361	0
bin	180.39433333333	0
bin	180.42766666667	0
bin	180.461	0
bin	180.49433333333	0
bin	180.52766666667	0
bin	180.561	1
bin	180.59433333333	0
bin	180.62766666667	0
bin	180.661	0
bin	180.69433333333	0
bin	180.72766666667	0
bin	180.761	0
bin	180.79433333333	0
bin	180.82766666667	0
bin	180.861	0
bin	180.89433333333	0
bin	180.92766666667	0
bin	180.961	0
bin	180.99433333333	0
bin	181.02766666667	0
bin	181.061	0
statistic RandomGeometricGraph.rgnv[63] 	arrivalPerc:histogram
field count 1
field mean 1
field stddev nan
field sum 1
field sqrsum 1
field min 1
field max 1
attr interpolationmode  none
attr source  count(arrival)
attr title  "arrival perc, histogram"
bin	-INF	0
bin	0	0
bin	1	1
bin	2	0
statistic RandomGeometricGraph.rgnv[64] 	arrivalTime:histogram
field count 1
field mean 118.868
field stddev nan
field sum 118.868
field sqrsum 14129.601424
field min 118.868
field max 118.868
attr interpolationmode  none
attr source  arrivalTime
attr title  "arrival time, histogram"
bin	-INF	0
bin	118.368	0
bin	118.40133333333	0
bin	118.43466666667	0
bin	118.468	0
bin	118.50133333333	0
bin	118.53466666667	0
bin	118.568	0
bin	118.60133333333	0
bin	118.63466666667	0
bin	118.668	0
bin	118.70133333333	0
bin	118.73466666667	0
bin	118.768	0
bin	118.80133333333	0
bin	118.83466666667	0
bin	118.868	1
bin	118.90133333333	0
bin	118.93466666667	0
bin	118.968	0
bin	119.00133333333	0
bin	119.03466666667	0
bin	119.068	0
bin	119.10133333333	0
bin	119.13466666667	0
bin	119.168	0
bin	119.20133333333	0
bin	119.23466666667	0
bin	119.268	0
bin	119.30133333333	0
bin	119.33466666667	0
bin	119.368	0
statistic RandomGeometricGraph.rgnv[64] 	arrivalPerc:histogram
field count 1
field mean 1
field stddev nan
field sum 1
field sqrsum 1
field min 1
field max 1
attr interpolationmode  none
attr source  count(arrival)
attr title  "arrival perc, histogram"
bin	-INF	0
bin	0	0
bin	1	1
bin	2	0
statistic RandomGeometricGraph.rgnv[65] 	arrivalTime:histogram
field count 1
field mean 255.591
field stddev nan
field sum 255.591
field sqrsum 65326.759281
field min 255.591
field max 255.591
attr interpolationmode  none
attr source  arrivalTime
attr title  "arrival time, histogram"
bin	-INF	0
bin	255.091	0
bin	255.12433333333	0
bin	255.15766666667	0
bin	255.191	0
bin	255.22433333333	0
bin	255.25766666667	0
bin	255.291	0
bin	255.32433333333	0
bin	255.35766666667	0
bin	255.391	0
bin	255.42433333333	0
bin	255.45766666667	0
bin	255.491	0
bin	255.52433333333	0
bin	255.55766666667	0
bin	255.591	1
bin	255.62433333333	0
bin	255.65766666667	0
bin	255.691	0
bin	255.72433333333	0
bin	255.75766666667	0
bin	255.791	0
bin	255.82433333333	0
bin	255.85766666667	0
bin	255.891	0
bin	255.92433333333	0
bin	255.95766666667	0
bin	255.991	0
bin	256.02433333333	0
bin	256.05766666667	0
bin	256.091	0
statistic RandomGeometricGraph.rgnv[65] 	arrivalPerc:histogram
field count 1
field mean 1
field stddev nan
field sum 1
field sqrsum 1
field min 1
field max 1
attr interpolationmode  none
attr source  count(arrival)
attr title  "arrival perc, histogram"
bin	-INF	0
bin	0	0
bin	1	1
bin	2	0
statistic RandomGeometricGraph.rgnv[66] 	arrivalTime:histogram
field count 1
field mean 138.888
field stddev nan
field sum 138.888
field sqrsum 19289.876544
field min 138.888
field max 138.888
attr interpolationmode  none
attr source  arrivalTime
attr title  "arrival time, histogram"
bin	-INF	0
bin	138.388	0
bin	138.42133333333	0
bin	138.45466666667	0
bin	138.488	0
bin	138.52133333333	0
bin	138.55466666667	0
bin	138.588	0
bin	138.62133333333	0
bin	138.65466666667	0
bin	138.688	0
bin	138.72133333333	0
bin	138.75466666667	0
bin	138.788	0
bin	138.82133333333	0
bin	138.85466666667	0
bin	138.888	1
bin	138.92133333333	0
bin	138.95466666667	0
bin	138.988	0
bin	139.02133333333	0
bin	139.05466666667	0
bin	139.088	0
bin	139.12133333333	0
bin	139.15466666667	0
bin	139.188	0
bin	139.22133333333	0
bin	139.25466666667	0
bin	139.288	0
bin	139.32133333333	0
bin	139.35466666667	0
bin	139.388	0
statistic RandomGeometricGraph.rgnv[66] 	arrivalPerc:histogram
field count 1
field mean 1
field stddev nan
field sum 1
field sqrsum 1
field min 1
field max 1
[...]
statistic RandomGeometricGraph.rgnv[483] 	arrivalTime:histogram
field count 1
field mean 91.627
field stddev nan
field sum 91.627
field sqrsum 8395.507129
field min 91.627
field max 91.627
attr interpolationmode  none
attr source  arrivalTime
attr title  "arrival time, histogram"
bin	-INF	0
bin	91.127	0
bin	91.160333333333	0
bin	91.193666666667	0
bin	91.227	0
bin	91.260333333333	0
bin	91.293666666667	0
bin	91.327	0
bin	91.360333333333	0
bin	91.393666666667	0
bin	91.427	0
bin	91.460333333333	0
bin	91.493666666667	0
bin	91.527	0
bin	91.560333333333	0
bin	91.593666666667	0
bin	91.627	1
bin	91.660333333333	0
bin	91.693666666667	0
bin	91.727	0
bin	91.760333333333	0
bin	91.793666666667	0
bin	91.827	0
bin	91.860333333333	0
bin	91.893666666667	0
bin	91.927	0
bin	91.960333333333	0
bin	91.993666666667	0
bin	92.027	0
bin	92.060333333333	0
bin	92.093666666667	0
bin	92.127	0
statistic RandomGeometricGraph.rgnv[483] 	arrivalPerc:histogram
field count 1
field mean 1
field stddev nan
field sum 1
field sqrsum 1
field min 1
field max 1
attr interpolationmode  none
attr source  count(arrival)
attr title  "arrival perc, histogram"
bin	-INF	0
bin	0	0
bin	1	1
bin	2	0
statistic RandomGeometricGraph.rgnv[484] 	arrivalTime:histogram
field count 1
field mean 176.119
field stddev nan
field sum 176.119
field sqrsum 31017.902161
field min 176.119
field max 176.119
attr interpolationmode  none
attr source  arrivalTime
attr title  "arrival time, histogram"
bin	-INF	0
bin	175.619	0
bin	175.65233333333	0
bin	175.68566666667	0
bin	175.719	0
bin	175.75233333333	0
bin	175.78566666667	0
bin	175.819	0
bin	175.85233333333	0
bin	175.88566666667	0
bin	175.919	0
bin	175.95233333333	0
bin	175.98566666667	0
bin	176.019	0
bin	176.05233333333	0
bin	176.08566666667	0
bin	176.119	1
bin	176.15233333333	0
bin	176.18566666667	0
bin	176.219	0
bin	176.25233333333	0
bin	176.28566666667	0
bin	176.319	0
bin	176.35233333333	0
bin	176.38566666667	0
bin	176.419	0
bin	176.45233333333	0
bin	176.48566666667	0
bin	176.519	0
bin	176.55233333333	0
bin	176.58566666667	0
bin	176.619	0
statistic RandomGeometricGraph.rgnv[484] 	arrivalPerc:histogram
field count 1
field mean 1
field stddev nan
field sum 1
field sqrsum 1
field min 1
field max 1
attr interpolationmode  none
attr source  count(arrival)
attr title  "arrival perc, histogram"
bin	-INF	0
bin	0	0
bin	1	1
bin	2	0
statistic RandomGeometricGraph.rgnv[485] 	arrivalTime:histogram
field count 1
field mean 171.119
field stddev nan
field sum 171.119
field sqrsum 29281.712161
field min 171.119
field max 171.119
attr interpolationmode  none
attr source  arrivalTime
attr title  "arrival time, histogram"
bin	-INF	0
bin	170.619	0
bin	170.65233333333	0
bin	170.68566666667	0
bin	170.719	0
bin	170.75233333333	0
bin	170.78566666667	0
bin	170.819	0
bin	170.85233333333	0
bin	170.88566666667	0
bin	170.919	0
bin	170.95233333333	0
bin	170.98566666667	0
bin	171.019	0
bin	171.05233333333	0
bin	171.08566666667	0
bin	171.119	1
bin	171.15233333333	0
bin	171.18566666667	0
bin	171.219	0
bin	171.25233333333	0
bin	171.28566666667	0
bin	171.319	0
bin	171.35233333333	0
bin	171.38566666667	0
bin	171.419	0
bin	171.45233333333	0
bin	171.48566666667	0
bin	171.519	0
bin	171.55233333333	0
bin	171.58566666667	0
bin	171.619	0
statistic RandomGeometricGraph.rgnv[485] 	arrivalPerc:histogram
field count 1
field mean 1
field stddev nan
field sum 1
field sqrsum 1
field min 1
field max 1
attr interpolationmode  none
attr source  count(arrival)
attr title  "arrival perc, histogram"
bin	-INF	0
bin	0	0
bin	1	1
bin	2	0
statistic RandomGeometricGraph.rgnv[486] 	arrivalTime:histogram
field count 1
field mean 235.013
field stddev nan
field sum 235.013
field sqrsum 55231.110169
field min 235.013
field max 235.013
attr interpolationmode  none
attr source  arrivalTime
attr title  "arrival time, histogram"
bin	-INF	0
bin	234.513	0
bin	234.54633333333	0
bin	234.57966666667	0
bin	234.613	0
bin	234.64633333333	0
bin	234.67966666667	0
bin	234.713	0
bin	234.74633333333	0
bin	234.77966666667	0
bin	234.813	0
bin	234.84633333333	0
bin	234.87966666667	0
bin	234.913	0
bin	234.94633333333	0
bin	234.97966666667	0
bin	235.013	1
bin	235.04633333333	0
bin	235.07966666667	0
bin	235.113	0
bin	235.14633333333	0
bin	235.17966666667	0
bin	235.213	0
bin	235.24633333333	0
bin	235.27966666667	0
bin	235.313	0
bin	235.34633333333	0
bin	235.37966666667	0
bin	235.413	0
bin	235.44633333333	0
bin	235.47966666667	0
bin	235.513	0
statistic RandomGeometricGraph.rgnv[486] 	arrivalPerc:histogram
field count 1
field mean 1
field stddev nan
field sum 1
field sqrsum 1
field min 1
field max 1
attr interpolationmode  none
attr source  count(arrival)
attr title  "arrival perc, histogram"
bin	-INF	0
bin	0	0
bin	1	1
bin	2	0
statistic RandomGeometricGraph.rgnv[487] 	arrivalTime:histogram
field count 1
field mean 222.802
field stddev nan
field sum 222.802
field sqrsum 49640.731204
field min 222.802
field max 222.802
attr interpolationmode  none
attr source  arrivalTime
attr title  "arrival time, histogram"
bin	-INF	0
bin	222.302	0
bin	222.33533333333	0
bin	222.36866666667	0
bin	222.402	0
bin	222.43533333333	0
bin	222.46866666667	0
bin	222.502	0
bin	222.53533333333	0
bin	222.56866666667	0
bin	222.602	0
bin	222.63533333333	0
bin	222.66866666667	0
bin	222.702	0
bin	222.73533333333	0
bin	222.76866666667	0
bin	222.802	1
bin	222.83533333333	0
bin	222.86866666667	0
bin	222.902	0
bin	222.93533333333	0
bin	222.96866666667	0
bin	223.002	0
bin	223.03533333333	0
bin	223.06866666667	0
bin	223.102	0
bin	223.13533333333	0
bin	223.16866666667	0
bin	223.202	0
bin	223.23533333333	0
bin	223.26866666667	0
bin	223.302	0
statistic RandomGeometricGraph.rgnv[487] 	arrivalPerc:histogram
field count 1
field mean 1
field stddev nan
field sum 1
field sqrsum 1
field min 1
field max 1
attr interpolationmode  none
attr source  count(arrival)
attr title  "arrival perc, histogram"
bin	-INF	0
bin	0	0
bin	1	1
bin	2	0
statistic RandomGeometricGraph.rgnv[488] 	arrivalTime:histogram
field count 1
field mean 200.033
field stddev nan
field sum 200.033
field sqrsum 40013.201089
field min 200.033
field max 200.033
attr interpolationmode  none
attr source  arrivalTime
attr title  "arrival time, histogram"
bin	-INF	0
bin	199.533	0
bin	199.56633333333	0
bin	199.59966666667	0
bin	199.633	0
bin	199.66633333333	0
bin	199.69966666667	0
bin	199.733	0
bin	199.76633333333	0
bin	199.79966666667	0
bin	199.833	0
bin	199.86633333333	0
bin	199.89966666667	0
bin	199.933	0
bin	199.96633333333	0
bin	199.99966666667	0
bin	200.033	1
bin	200.06633333333	0
bin	200.09966666667	0
bin	200.133	0
bin	200.16633333333	0
bin	200.19966666667	0
bin	200.233	0
bin	200.26633333333	0
bin	200.29966666667	0
bin	200.333	0
bin	200.36633333333	0
bin	200.39966666667	0
bin	200.433	0
bin	200.46633333333	0
bin	200.49966666667	0
bin	200.533	0
statistic RandomGeometricGraph.rgnv[488] 	arrivalPerc:histogram
field count 1
field mean 1
field stddev nan
field sum 1
field sqrsum 1
field min 1
field max 1
attr interpolationmode  none
attr source  count(arrival)
attr title  "arrival perc, histogram"
bin	-INF	0
bin	0	0
bin	1	1
bin	2	0
statistic RandomGeometricGraph.rgnv[489] 	arrivalTime:histogram
field count 1
field mean 195.571
field stddev nan
field sum 195.571
field sqrsum 38248.016041
field min 195.571
field max 195.571
attr interpolationmode  none
attr source  arrivalTime
attr title  "arrival time, histogram"
bin	-INF	0
bin	195.071	0
bin	195.10433333333	0
bin	195.13766666667	0
bin	195.171	0
bin	195.20433333333	0
bin	195.23766666667	0
bin	195.271	0
bin	195.30433333333	0
bin	195.33766666667	0
bin	195.371	0
bin	195.40433333333	0
bin	195.43766666667	0
bin	195.471	0
bin	195.50433333333	0
bin	195.53766666667	0
bin	195.571	1
bin	195.60433333333	0
bin	195.63766666667	0
bin	195.671	0
bin	195.70433333333	0
bin	195.73766666667	0
bin	195.771	0
bin	195.80433333333	0
bin	195.83766666667	0
bin	195.871	0
bin	195.90433333333	0
bin	195.93766666667	0
bin	195.971	0
bin	196.00433333333	0
bin	196.03766666667	0
bin	196.071	0
statistic RandomGeometricGraph.rgnv[489] 	arrivalPerc:histogram
field count 1
field mean 1
field stddev nan
field sum 1
field sqrsum 1
field min 1
field max 1
attr interpolationmode  none
attr source  count(arrival)
attr title  "arrival perc, histogram"
bin	-INF	0
bin	0	0
bin	1	1
bin	2	0
statistic RandomGeometricGraph.rgnv[490] 	arrivalTime:histogram
field count 1
field mean 153.898
field stddev nan
field sum 153.898
field sqrsum 23684.594404
field min 153.898
field max 153.898
attr interpolationmode  none
attr source  arrivalTime
attr title  "arrival time, histogram"
bin	-INF	0
bin	153.398	0
bin	153.43133333333	0
bin	153.46466666667	0
bin	153.498	0
bin	153.53133333333	0
bin	153.56466666667	0
bin	153.598	0
bin	153.63133333333	0
bin	153.66466666667	0
bin	153.698	0
bin	153.73133333333	0
bin	153.76466666667	0
bin	153.798	0
bin	153.83133333333	0
bin	153.86466666667	0
bin	153.898	1
bin	153.93133333333	0
bin	153.96466666667	0
bin	153.998	0
bin	154.03133333333	0
bin	154.06466666667	0
bin	154.098	0
bin	154.13133333333	0
bin	154.16466666667	0
bin	154.198	0
bin	154.23133333333	0
bin	154.26466666667	0
bin	154.298	0
bin	154.33133333333	0
bin	154.36466666667	0
bin	154.398	0
statistic RandomGeometricGraph.rgnv[490] 	arrivalPerc:histogram
field count 1
field mean 1
field stddev nan
field sum 1
field sqrsum 1
field min 1
field max 1
attr interpolationmode  none
attr source  count(arrival)
attr title  "arrival perc, histogram"
bin	-INF	0
bin	0	0
bin	1	1
bin	2	0
statistic RandomGeometricGraph.rgnv[491] 	arrivalTime:histogram
field count 1
field mean 108.868
field stddev nan
field sum 108.868
field sqrsum 11852.241424
field min 108.868
field max 108.868
attr interpolationmode  none
attr source  arrivalTime
attr title  "arrival time, histogram"
bin	-INF	0
bin	108.368	0
bin	108.40133333333	0
bin	108.43466666667	0
bin	108.468	0
bin	108.50133333333	0
bin	108.53466666667	0
bin	108.568	0
bin	108.60133333333	0
bin	108.63466666667	0
bin	108.668	0
bin	108.70133333333	0
bin	108.73466666667	0
bin	108.768	0
bin	108.80133333333	0
bin	108.83466666667	0
bin	108.868	1
bin	108.90133333333	0
bin	108.93466666667	0
bin	108.968	0
bin	109.00133333333	0
bin	109.03466666667	0
bin	109.068	0
bin	109.10133333333	0
bin	109.13466666667	0
bin	109.168	0
bin	109.20133333333	0
bin	109.23466666667	0
bin	109.268	0
bin	109.30133333333	0
bin	109.33466666667	0
bin	109.368	0
statistic RandomGeometricGraph.rgnv[491] 	arrivalPerc:histogram
field count 1
field mean 1
field stddev nan
field sum 1
field sqrsum 1
field min 1
field max 1
attr interpolationmode  none
attr source  count(arrival)
attr title  "arrival perc, histogram"
bin	-INF	0
bin	0	0
bin	1	1
bin	2	0
statistic RandomGeometricGraph.rgnv[492] 	arrivalTime:histogram
field count 1
field mean 148.33
field stddev nan
field sum 148.33
field sqrsum 22001.7889
field min 148.33
field max 148.33
attr interpolationmode  none
attr source  arrivalTime
attr title  "arrival time, histogram"
bin	-INF	0
bin	147.83	0
bin	147.86333333333	0
bin	147.89666666667	0
bin	147.93	0
bin	147.96333333333	0
bin	147.99666666667	0
bin	148.03	0
bin	148.06333333333	0
bin	148.09666666667	0
bin	148.13	0
bin	148.16333333333	0
bin	148.19666666667	0
bin	148.23	0
bin	148.26333333333	0
bin	148.29666666667	0
bin	148.33	1
bin	148.36333333333	0
bin	148.39666666667	0
bin	148.43	0
bin	148.46333333333	0
bin	148.49666666667	0
bin	148.53	0
bin	148.56333333333	0
bin	148.59666666667	0
bin	148.63	0
bin	148.66333333333	0
bin	148.69666666667	0
bin	148.73	0
bin	148.76333333333	0
bin	148.79666666667	0
bin	148.83	0
statistic RandomGeometricGraph.rgnv[492] 	arrivalPerc:histogram
field count 1
field mean 1
field stddev nan
field sum 1
field sqrsum 1
field min 1
field max 1
attr interpolationmode  none
attr source  count(arrival)
attr title  "arrival perc, histogram"
bin	-INF	0
bin	0	0
bin	1	1
bin	2	0
statistic RandomGeometricGraph.rgnv[493] 	arrivalTime:histogram
field count 1
field mean 240.023
field stddev nan
field sum 240.023
field sqrsum 57611.040529
field min 240.023
field max 240.023
attr interpolationmode  none
attr source  arrivalTime
attr title  "arrival time, histogram"
bin	-INF	0
bin	239.523	0
bin	239.55633333333	0
bin	239.58966666667	0
bin	239.623	0
bin	239.65633333333	0
bin	239.68966666667	0
bin	239.723	0
bin	239.75633333333	0
bin	239.78966666667	0
bin	239.823	0
bin	239.85633333333	0
bin	239.88966666667	0
bin	239.923	0
bin	239.95633333333	0
bin	239.98966666667	0
bin	240.023	1
bin	240.05633333333	0
bin	240.08966666667	0
bin	240.123	0
bin	240.15633333333	0
bin	240.18966666667	0
bin	240.223	0
bin	240.25633333333	0
bin	240.28966666667	0
bin	240.323	0
bin	240.35633333333	0
bin	240.38966666667	0
bin	240.423	0
bin	240.45633333333	0
bin	240.48966666667	0
bin	240.523	0
statistic RandomGeometricGraph.rgnv[493] 	arrivalPerc:histogram
field count 1
field mean 1
field stddev nan
field sum 1
field sqrsum 1
field min 1
field max 1
attr interpolationmode  none
attr source  count(arrival)
attr title  "arrival perc, histogram"
bin	-INF	0
bin	0	0
bin	1	1
bin	2	0
statistic RandomGeometricGraph.rgnv[494] 	arrivalTime:histogram
field count 1
field mean 62.155
field stddev nan
field sum 62.155
field sqrsum 3863.244025
field min 62.155
field max 62.155
attr interpolationmode  none
attr source  arrivalTime
attr title  "arrival time, histogram"
bin	-INF	0
bin	61.655	0
bin	61.688333333333	0
bin	61.721666666667	0
bin	61.755	0
bin	61.788333333333	0
bin	61.821666666667	0
bin	61.855	0
bin	61.888333333333	0
bin	61.921666666667	0
bin	61.955	0
bin	61.988333333333	0
bin	62.021666666667	0
bin	62.055	0
bin	62.088333333333	0
bin	62.121666666667	0
bin	62.155	1
bin	62.188333333333	0
bin	62.221666666667	0
bin	62.255	0
bin	62.288333333333	0
bin	62.321666666667	0
bin	62.355	0
bin	62.388333333333	0
bin	62.421666666667	0
bin	62.455	0
bin	62.488333333333	0
bin	62.521666666667	0
bin	62.555	0
bin	62.588333333333	0
bin	62.621666666667	0
bin	62.655	0
statistic RandomGeometricGraph.rgnv[494] 	arrivalPerc:histogram
field count 1
field mean 1
field stddev nan
field sum 1
field sqrsum 1
field min 1
field max 1
attr interpolationmode  none
attr source  count(arrival)
attr title  "arrival perc, histogram"
bin	-INF	0
bin	0	0
bin	1	1
bin	2	0
statistic RandomGeometricGraph.rgnv[495] 	arrivalTime:histogram
field count 1
field mean 118.868
field stddev nan
field sum 118.868
field sqrsum 14129.601424
field min 118.868
field max 118.868
attr interpolationmode  none
attr source  arrivalTime
attr title  "arrival time, histogram"
bin	-INF	0
bin	118.368	0
bin	118.40133333333	0
bin	118.43466666667	0
bin	118.468	0
bin	118.50133333333	0
bin	118.53466666667	0
bin	118.568	0
bin	118.60133333333	0
bin	118.63466666667	0
bin	118.668	0
bin	118.70133333333	0
bin	118.73466666667	0
bin	118.768	0
bin	118.80133333333	0
bin	118.83466666667	0
bin	118.868	1
bin	118.90133333333	0
bin	118.93466666667	0
bin	118.968	0
bin	119.00133333333	0
bin	119.03466666667	0
bin	119.068	0
bin	119.10133333333	0
bin	119.13466666667	0
bin	119.168	0
bin	119.20133333333	0
bin	119.23466666667	0
bin	119.268	0
bin	119.30133333333	0
bin	119.33466666667	0
bin	119.368	0
statistic RandomGeometricGraph.rgnv[495] 	arrivalPerc:histogram
field count 1
field mean 1
field stddev nan
field sum 1
field sqrsum 1
field min 1
field max 1
attr interpolationmode  none
attr source  count(arrival)
attr title  "arrival perc, histogram"
bin	-INF	0
bin	0	0
bin	1	1
bin	2	0
statistic RandomGeometricGraph.rgnv[496] 	arrivalTime:histogram
field count 1
field mean 245.571
field stddev nan
field sum 245.571
field sqrsum 60305.116041
field min 245.571
field max 245.571
attr interpolationmode  none
attr source  arrivalTime
attr title  "arrival time, histogram"
bin	-INF	0
bin	245.071	0
bin	245.10433333333	0
bin	245.13766666667	0
bin	245.171	0
bin	245.20433333333	0
bin	245.23766666667	0
bin	245.271	0
bin	245.30433333333	0
bin	245.33766666667	0
bin	245.371	0
bin	245.40433333333	0
bin	245.43766666667	0
bin	245.471	0
bin	245.50433333333	0
bin	245.53766666667	0
bin	245.571	1
bin	245.60433333333	0
bin	245.63766666667	0
bin	245.671	0
bin	245.70433333333	0
bin	245.73766666667	0
bin	245.771	0
bin	245.80433333333	0
bin	245.83766666667	0
bin	245.871	0
bin	245.90433333333	0
bin	245.93766666667	0
bin	245.971	0
bin	246.00433333333	0
bin	246.03766666667	0
bin	246.071	0
statistic RandomGeometricGraph.rgnv[496] 	arrivalPerc:histogram
field count 1
field mean 1
field stddev nan
field sum 1
field sqrsum 1
field min 1
field max 1
attr interpolationmode  none
attr source  count(arrival)
attr title  "arrival perc, histogram"
bin	-INF	0
bin	0	0
bin	1	1
bin	2	0
statistic RandomGeometricGraph.rgnv[497] 	arrivalTime:histogram
field count 1
field mean 229.485
field stddev nan
field sum 229.485
field sqrsum 52663.365225
field min 229.485
field max 229.485
attr interpolationmode  none
attr source  arrivalTime
attr title  "arrival time, histogram"
bin	-INF	0
bin	228.985	0
bin	229.01833333333	0
bin	229.05166666667	0
bin	229.085	0
bin	229.11833333333	0
bin	229.15166666667	0
bin	229.185	0
bin	229.21833333333	0
bin	229.25166666667	0
bin	229.285	0
bin	229.31833333333	0
bin	229.35166666667	0
bin	229.385	0
bin	229.41833333333	0
bin	229.45166666667	0
bin	229.485	1
bin	229.51833333333	0
bin	229.55166666667	0
bin	229.585	0
bin	229.61833333333	0
bin	229.65166666667	0
bin	229.685	0
bin	229.71833333333	0
bin	229.75166666667	0
bin	229.785	0
bin	229.81833333333	0
bin	229.85166666667	0
bin	229.885	0
bin	229.91833333333	0
bin	229.95166666667	0
bin	229.985	0
statistic RandomGeometricGraph.rgnv[497] 	arrivalPerc:histogram
field count 1
field mean 1
field stddev nan
field sum 1
field sqrsum 1
field min 1
field max 1
attr interpolationmode  none
attr source  count(arrival)
attr title  "arrival perc, histogram"
bin	-INF	0
bin	0	0
bin	1	1
bin	2	0
statistic RandomGeometricGraph.rgnv[498] 	arrivalTime:histogram
field count 1
field mean 62.175
field stddev nan
field sum 62.175
field sqrsum 3865.730625
field min 62.175
field max 62.175
attr interpolationmode  none
attr source  arrivalTime
attr title  "arrival time, histogram"
bin	-INF	0
bin	61.675	0
bin	61.708333333333	0
bin	61.741666666667	0
bin	61.775	0
bin	61.808333333333	0
bin	61.841666666667	0
bin	61.875	0
bin	61.908333333333	0
bin	61.941666666667	0
bin	61.975	0
bin	62.008333333333	0
bin	62.041666666667	0
bin	62.075	0
bin	62.108333333333	0
bin	62.141666666667	0
bin	62.175	1
bin	62.208333333333	0
bin	62.241666666667	0
bin	62.275	0
bin	62.308333333333	0
bin	62.341666666667	0
bin	62.375	0
bin	62.408333333333	0
bin	62.441666666667	0
bin	62.475	0
bin	62.508333333333	0
bin	62.541666666667	0
bin	62.575	0
bin	62.608333333333	0
bin	62.641666666667	0
bin	62.675	0
statistic RandomGeometricGraph.rgnv[498] 	arrivalPerc:histogram
field count 1
field mean 1
field stddev nan
field sum 1
field sqrsum 1
field min 1
field max 1
attr interpolationmode  none
attr source  count(arrival)
attr title  "arrival perc, histogram"
bin	-INF	0
bin	0	0
bin	1	1
bin	2	0
statistic RandomGeometricGraph.rgnv[499] 	arrivalTime:histogram
field count 1
field mean 128.878
field stddev nan
field sum 128.878
field sqrsum 16609.538884
field min 128.878
field max 128.878
attr interpolationmode  none
attr source  arrivalTime
attr title  "arrival time, histogram"
bin	-INF	0
bin	128.378	0
bin	128.41133333333	0
bin	128.44466666667	0
bin	128.478	0
bin	128.51133333333	0
bin	128.54466666667	0
bin	128.578	0
bin	128.61133333333	0
bin	128.64466666667	0
bin	128.678	0
bin	128.71133333333	0
bin	128.74466666667	0
bin	128.778	0
bin	128.81133333333	0
bin	128.84466666667	0
bin	128.878	1
bin	128.91133333333	0
bin	128.94466666667	0
bin	128.978	0
bin	129.01133333333	0
bin	129.04466666667	0
bin	129.078	0
bin	129.11133333333	0
bin	129.14466666667	0
bin	129.178	0
bin	129.21133333333	0
bin	129.24466666667	0
bin	129.278	0
bin	129.31133333333	0
bin	129.34466666667	0
bin	129.378	0
statistic RandomGeometricGraph.rgnv[499] 	arrivalPerc:histogram
field count 1
field mean 1
field stddev nan
field sum 1
field sqrsum 1
field min 1
field max 1
attr interpolationmode  none
attr source  count(arrival)
attr title  "arrival perc, histogram"
bin	-INF	0
bin	0	0
bin	1	1
bin	2	0
