version 2
run rgg500-19-20170110-16:34:38-12272
attr configname rgg500
attr datetime 20170110-16:34:38
attr experiment rgg500
attr inifile iniFile/D001/omnetpp_50D001.ini
attr iterationvars ""
attr iterationvars2 $repetition=19
attr measurement ""
attr network blegossipprj.net.randomgeometricgraph.RandomGeometricGraph
attr processid 12272
attr repetition 19
attr replication #19
attr resultdir ../../results/D001/r50D001
attr runnumber 19
attr seedset 19
param RandomGeometricGraph.netSize 500
param RandomGeometricGraph.radius 50
param RandomGeometricGraph.rgnv[*].areaLength 158
param RandomGeometricGraph.rgnv[*].areaWidth 158

statistic RandomGeometricGraph.sc 	arrivalPercentage
field count 500
field mean 1
field stddev 0
field sum 500
field sqrsum 500
field min 1
field max 1
attr type  int
bin	-INF	0
bin	0	0
bin	1	500
bin	2	0
statistic RandomGeometricGraph.sc 	arrivalTime
field count 500
field mean 136.134512
field stddev 38.93787445174
field sum 68067.256
field sqrsum 10022865.554082
field min 0
field max 215.023
bin	-INF	0
bin	-50.8285	0
bin	-44.051366666667	0
bin	-37.274233333333	0
bin	-30.4971	0
bin	-23.719966666667	0
bin	-16.942833333333	0
bin	-10.1657	0
bin	-3.3885666666667	1
bin	3.3885666666667	0
bin	10.1657	1
bin	16.942833333333	0
bin	23.719966666667	2
bin	30.4971	0
bin	37.274233333333	4
bin	44.051366666667	2
bin	50.8285	3
bin	57.605633333333	6
bin	64.382766666667	6
bin	71.1599	8
bin	77.937033333333	15
bin	84.714166666667	11
bin	91.4913	23
bin	98.268433333333	27
bin	105.04556666667	28
bin	111.8227	20
bin	118.59983333333	40
bin	125.37696666667	41
bin	132.1541	34
bin	138.93123333333	22
bin	145.70836666667	24
bin	152.4855	182
statistic RandomGeometricGraph.rgnv[0] 	arrivalTime:histogram
field count 1
field mean 182.244
field stddev nan
field sum 182.244
field sqrsum 33212.875536
field min 182.244
field max 182.244
attr interpolationmode  none
attr source  arrivalTime
attr title  "arrival time, histogram"
bin	-INF	0
bin	181.744	0
bin	181.77733333333	0
bin	181.81066666667	0
bin	181.844	0
bin	181.87733333333	0
bin	181.91066666667	0
bin	181.944	0
bin	181.97733333333	0
bin	182.01066666667	0
bin	182.044	0
bin	182.07733333333	0
bin	182.11066666667	0
bin	182.144	0
bin	182.17733333333	0
bin	182.21066666667	0
bin	182.244	1
bin	182.27733333333	0
bin	182.31066666667	0
bin	182.344	0
bin	182.37733333333	0
bin	182.41066666667	0
bin	182.444	0
bin	182.47733333333	0
bin	182.51066666667	0
bin	182.544	0
bin	182.57733333333	0
bin	182.61066666667	0
bin	182.644	0
bin	182.67733333333	0
bin	182.71066666667	0
bin	182.744	0
statistic RandomGeometricGraph.rgnv[0] 	arrivalPerc:histogram
field count 1
field mean 1
field stddev nan
field sum 1
field sqrsum 1
field min 1
field max 1
attr interpolationmode  none
attr source  count(arrival)
attr title  "arrival perc, histogram"
bin	-INF	0
bin	0	0
bin	1	1
bin	2	0
statistic RandomGeometricGraph.rgnv[1] 	arrivalTime:histogram
field count 1
field mean 170.023
field stddev nan
field sum 170.023
field sqrsum 28907.820529
field min 170.023
field max 170.023
attr interpolationmode  none
attr source  arrivalTime
attr title  "arrival time, histogram"
bin	-INF	0
bin	169.523	0
bin	169.55633333333	0
bin	169.58966666667	0
bin	169.623	0
bin	169.65633333333	0
bin	169.68966666667	0
bin	169.723	0
bin	169.75633333333	0
bin	169.78966666667	0
bin	169.823	0
bin	169.85633333333	0
bin	169.88966666667	0
bin	169.923	0
bin	169.95633333333	0
bin	169.98966666667	0
bin	170.023	1
bin	170.05633333333	0
bin	170.08966666667	0
bin	170.123	0
bin	170.15633333333	0
bin	170.18966666667	0
bin	170.223	0
bin	170.25633333333	0
bin	170.28966666667	0
bin	170.323	0
bin	170.35633333333	0
bin	170.38966666667	0
bin	170.423	0
bin	170.45633333333	0
bin	170.48966666667	0
bin	170.523	0
statistic RandomGeometricGraph.rgnv[1] 	arrivalPerc:histogram
field count 1
field mean 1
field stddev nan
field sum 1
field sqrsum 1
field min 1
field max 1
attr interpolationmode  none
attr source  count(arrival)
attr title  "arrival perc, histogram"
bin	-INF	0
bin	0	0
bin	1	1
bin	2	0
statistic RandomGeometricGraph.rgnv[2] 	arrivalTime:histogram
field count 1
field mean 162.802
field stddev nan
field sum 162.802
field sqrsum 26504.491204
field min 162.802
field max 162.802
attr interpolationmode  none
attr source  arrivalTime
attr title  "arrival time, histogram"
bin	-INF	0
bin	162.302	0
bin	162.33533333333	0
bin	162.36866666667	0
bin	162.402	0
bin	162.43533333333	0
bin	162.46866666667	0
bin	162.502	0
bin	162.53533333333	0
bin	162.56866666667	0
bin	162.602	0
bin	162.63533333333	0
bin	162.66866666667	0
bin	162.702	0
bin	162.73533333333	0
bin	162.76866666667	0
bin	162.802	1
bin	162.83533333333	0
bin	162.86866666667	0
bin	162.902	0
bin	162.93533333333	0
bin	162.96866666667	0
bin	163.002	0
bin	163.03533333333	0
bin	163.06866666667	0
bin	163.102	0
bin	163.13533333333	0
bin	163.16866666667	0
bin	163.202	0
bin	163.23533333333	0
bin	163.26866666667	0
bin	163.302	0
statistic RandomGeometricGraph.rgnv[2] 	arrivalPerc:histogram
field count 1
field mean 1
field stddev nan
field sum 1
field sqrsum 1
field min 1
field max 1
attr interpolationmode  none
attr source  count(arrival)
attr title  "arrival perc, histogram"
bin	-INF	0
bin	0	0
bin	1	1
bin	2	0
statistic RandomGeometricGraph.rgnv[3] 	arrivalTime:histogram
field count 1
field mean 123.32
field stddev nan
field sum 123.32
field sqrsum 15207.8224
field min 123.32
field max 123.32
attr interpolationmode  none
attr source  arrivalTime
attr title  "arrival time, histogram"
bin	-INF	0
bin	122.82	0
bin	122.85333333333	0
bin	122.88666666667	0
bin	122.92	0
bin	122.95333333333	0
bin	122.98666666667	0
bin	123.02	0
bin	123.05333333333	0
bin	123.08666666667	0
bin	123.12	0
bin	123.15333333333	0
bin	123.18666666667	0
bin	123.22	0
bin	123.25333333333	0
bin	123.28666666667	0
bin	123.32	1
bin	123.35333333333	0
bin	123.38666666667	0
bin	123.42	0
bin	123.45333333333	0
bin	123.48666666667	0
bin	123.52	0
bin	123.55333333333	0
bin	123.58666666667	0
bin	123.62	0
bin	123.65333333333	0
bin	123.68666666667	0
bin	123.72	0
bin	123.75333333333	0
bin	123.78666666667	0
bin	123.82	0
statistic RandomGeometricGraph.rgnv[3] 	arrivalPerc:histogram
field count 1
field mean 1
field stddev nan
field sum 1
field sqrsum 1
field min 1
field max 1
attr interpolationmode  none
attr source  count(arrival)
attr title  "arrival perc, histogram"
bin	-INF	0
bin	0	0
bin	1	1
bin	2	0
statistic RandomGeometricGraph.rgnv[4] 	arrivalTime:histogram
field count 1
field mean 166.119
field stddev nan
field sum 166.119
field sqrsum 27595.522161
field min 166.119
field max 166.119
attr interpolationmode  none
attr source  arrivalTime
attr title  "arrival time, histogram"
bin	-INF	0
bin	165.619	0
bin	165.65233333333	0
bin	165.68566666667	0
bin	165.719	0
bin	165.75233333333	0
bin	165.78566666667	0
bin	165.819	0
bin	165.85233333333	0
bin	165.88566666667	0
bin	165.919	0
bin	165.95233333333	0
bin	165.98566666667	0
bin	166.019	0
bin	166.05233333333	0
bin	166.08566666667	0
bin	166.119	1
bin	166.15233333333	0
bin	166.18566666667	0
bin	166.219	0
bin	166.25233333333	0
bin	166.28566666667	0
bin	166.319	0
bin	166.35233333333	0
bin	166.38566666667	0
bin	166.419	0
bin	166.45233333333	0
bin	166.48566666667	0
bin	166.519	0
bin	166.55233333333	0
bin	166.58566666667	0
bin	166.619	0
statistic RandomGeometricGraph.rgnv[4] 	arrivalPerc:histogram
field count 1
field mean 1
field stddev nan
field sum 1
field sqrsum 1
field min 1
field max 1
attr interpolationmode  none
attr source  count(arrival)
attr title  "arrival perc, histogram"
bin	-INF	0
bin	0	0
bin	1	1
bin	2	0
statistic RandomGeometricGraph.rgnv[5] 	arrivalTime:histogram
field count 1
field mean 138.34
field stddev nan
field sum 138.34
field sqrsum 19137.9556
field min 138.34
field max 138.34
attr interpolationmode  none
attr source  arrivalTime
attr title  "arrival time, histogram"
bin	-INF	0
bin	137.84	0
bin	137.87333333333	0
bin	137.90666666667	0
bin	137.94	0
bin	137.97333333333	0
bin	138.00666666667	0
bin	138.04	0
bin	138.07333333333	0
bin	138.10666666667	0
bin	138.14	0
bin	138.17333333333	0
bin	138.20666666667	0
bin	138.24	0
bin	138.27333333333	0
bin	138.30666666667	0
bin	138.34	1
bin	138.37333333333	0
bin	138.40666666667	0
bin	138.44	0
bin	138.47333333333	0
bin	138.50666666667	0
bin	138.54	0
bin	138.57333333333	0
bin	138.60666666667	0
bin	138.64	0
bin	138.67333333333	0
bin	138.70666666667	0
bin	138.74	0
bin	138.77333333333	0
bin	138.80666666667	0
bin	138.84	0
statistic RandomGeometricGraph.rgnv[5] 	arrivalPerc:histogram
field count 1
field mean 1
field stddev nan
field sum 1
field sqrsum 1
field min 1
field max 1
attr interpolationmode  none
attr source  count(arrival)
attr title  "arrival perc, histogram"
bin	-INF	0
bin	0	0
bin	1	1
bin	2	0
statistic RandomGeometricGraph.rgnv[6] 	arrivalTime:histogram
field count 1
field mean 155.561
field stddev nan
field sum 155.561
field sqrsum 24199.224721
field min 155.561
field max 155.561
attr interpolationmode  none
attr source  arrivalTime
attr title  "arrival time, histogram"
bin	-INF	0
bin	155.061	0
bin	155.09433333333	0
bin	155.12766666667	0
bin	155.161	0
bin	155.19433333333	0
bin	155.22766666667	0
bin	155.261	0
bin	155.29433333333	0
bin	155.32766666667	0
bin	155.361	0
bin	155.39433333333	0
bin	155.42766666667	0
bin	155.461	0
bin	155.49433333333	0
bin	155.52766666667	0
bin	155.561	1
bin	155.59433333333	0
bin	155.62766666667	0
bin	155.661	0
bin	155.69433333333	0
bin	155.72766666667	0
bin	155.761	0
bin	155.79433333333	0
bin	155.82766666667	0
bin	155.861	0
bin	155.89433333333	0
bin	155.92766666667	0
bin	155.961	0
bin	155.99433333333	0
bin	156.02766666667	0
bin	156.061	0
statistic RandomGeometricGraph.rgnv[6] 	arrivalPerc:histogram
field count 1
field mean 1
field stddev nan
field sum 1
field sqrsum 1
field min 1
field max 1
attr interpolationmode  none
attr source  count(arrival)
attr title  "arrival perc, histogram"
bin	-INF	0
bin	0	0
bin	1	1
bin	2	0
statistic RandomGeometricGraph.rgnv[7] 	arrivalTime:histogram
field count 1
field mean 113.878
field stddev nan
field sum 113.878
field sqrsum 12968.198884
field min 113.878
field max 113.878
attr interpolationmode  none
attr source  arrivalTime
attr title  "arrival time, histogram"
bin	-INF	0
bin	113.378	0
bin	113.41133333333	0
bin	113.44466666667	0
bin	113.478	0
bin	113.51133333333	0
bin	113.54466666667	0
bin	113.578	0
bin	113.61133333333	0
bin	113.64466666667	0
bin	113.678	0
bin	113.71133333333	0
bin	113.74466666667	0
bin	113.778	0
bin	113.81133333333	0
bin	113.84466666667	0
bin	113.878	1
bin	113.91133333333	0
bin	113.94466666667	0
bin	113.978	0
bin	114.01133333333	0
bin	114.04466666667	0
bin	114.078	0
bin	114.11133333333	0
bin	114.14466666667	0
bin	114.178	0
bin	114.21133333333	0
bin	114.24466666667	0
bin	114.278	0
bin	114.31133333333	0
bin	114.34466666667	0
bin	114.378	0
statistic RandomGeometricGraph.rgnv[7] 	arrivalPerc:histogram
field count 1
field mean 1
field stddev nan
field sum 1
field sqrsum 1
field min 1
field max 1
attr interpolationmode  none
attr source  count(arrival)
attr title  "arrival perc, histogram"
bin	-INF	0
bin	0	0
bin	1	1
bin	2	0
statistic RandomGeometricGraph.rgnv[8] 	arrivalTime:histogram
field count 1
field mean 138.33
field stddev nan
field sum 138.33
field sqrsum 19135.1889
field min 138.33
field max 138.33
attr interpolationmode  none
attr source  arrivalTime
attr title  "arrival time, histogram"
bin	-INF	0
bin	137.83	0
bin	137.86333333333	0
bin	137.89666666667	0
bin	137.93	0
bin	137.96333333333	0
bin	137.99666666667	0
bin	138.03	0
bin	138.06333333333	0
bin	138.09666666667	0
bin	138.13	0
bin	138.16333333333	0
bin	138.19666666667	0
bin	138.23	0
bin	138.26333333333	0
bin	138.29666666667	0
bin	138.33	1
bin	138.36333333333	0
bin	138.39666666667	0
bin	138.43	0
bin	138.46333333333	0
bin	138.49666666667	0
bin	138.53	0
bin	138.56333333333	0
bin	138.59666666667	0
bin	138.63	0
bin	138.66333333333	0
bin	138.69666666667	0
bin	138.73	0
bin	138.76333333333	0
bin	138.79666666667	0
bin	138.83	0
statistic RandomGeometricGraph.rgnv[8] 	arrivalPerc:histogram
field count 1
field mean 1
field stddev nan
field sum 1
field sqrsum 1
field min 1
field max 1
attr interpolationmode  none
attr source  count(arrival)
attr title  "arrival perc, histogram"
bin	-INF	0
bin	0	0
bin	1	1
bin	2	0
statistic RandomGeometricGraph.rgnv[9] 	arrivalTime:histogram
field count 1
field mean 173.34
field stddev nan
field sum 173.34
field sqrsum 30046.7556
field min 173.34
field max 173.34
attr interpolationmode  none
attr source  arrivalTime
attr title  "arrival time, histogram"
bin	-INF	0
bin	172.84	0
bin	172.87333333333	0
bin	172.90666666667	0
bin	172.94	0
bin	172.97333333333	0
bin	173.00666666667	0
bin	173.04	0
bin	173.07333333333	0
bin	173.10666666667	0
bin	173.14	0
bin	173.17333333333	0
bin	173.20666666667	0
bin	173.24	0
bin	173.27333333333	0
bin	173.30666666667	0
bin	173.34	1
bin	173.37333333333	0
bin	173.40666666667	0
bin	173.44	0
bin	173.47333333333	0
bin	173.50666666667	0
bin	173.54	0
bin	173.57333333333	0
bin	173.60666666667	0
bin	173.64	0
bin	173.67333333333	0
bin	173.70666666667	0
bin	173.74	0
bin	173.77333333333	0
bin	173.80666666667	0
bin	173.84	0
statistic RandomGeometricGraph.rgnv[9] 	arrivalPerc:histogram
field count 1
field mean 1
field stddev nan
field sum 1
field sqrsum 1
field min 1
field max 1
attr interpolationmode  none
attr source  count(arrival)
attr title  "arrival perc, histogram"
bin	-INF	0
bin	0	0
bin	1	1
bin	2	0
statistic RandomGeometricGraph.rgnv[10] 	arrivalTime:histogram
field count 1
field mean 163.34
field stddev nan
field sum 163.34
field sqrsum 26679.9556
field min 163.34
field max 163.34
attr interpolationmode  none
attr source  arrivalTime
attr title  "arrival time, histogram"
bin	-INF	0
bin	162.84	0
bin	162.87333333333	0
bin	162.90666666667	0
bin	162.94	0
bin	162.97333333333	0
bin	163.00666666667	0
bin	163.04	0
bin	163.07333333333	0
bin	163.10666666667	0
bin	163.14	0
bin	163.17333333333	0
bin	163.20666666667	0
bin	163.24	0
bin	163.27333333333	0
bin	163.30666666667	0
bin	163.34	1
bin	163.37333333333	0
bin	163.40666666667	0
bin	163.44	0
bin	163.47333333333	0
bin	163.50666666667	0
bin	163.54	0
bin	163.57333333333	0
bin	163.60666666667	0
bin	163.64	0
bin	163.67333333333	0
bin	163.70666666667	0
bin	163.74	0
bin	163.77333333333	0
bin	163.80666666667	0
bin	163.84	0
statistic RandomGeometricGraph.rgnv[10] 	arrivalPerc:histogram
field count 1
field mean 1
field stddev nan
field sum 1
field sqrsum 1
field min 1
field max 1
attr interpolationmode  none
attr source  count(arrival)
attr title  "arrival perc, histogram"
bin	-INF	0
bin	0	0
bin	1	1
bin	2	0
statistic RandomGeometricGraph.rgnv[11] 	arrivalTime:histogram
field count 1
field mean 106.667
field stddev nan
field sum 106.667
field sqrsum 11377.848889
field min 106.667
field max 106.667
attr interpolationmode  none
attr source  arrivalTime
attr title  "arrival time, histogram"
bin	-INF	0
bin	106.167	0
bin	106.20033333333	0
bin	106.23366666667	0
bin	106.267	0
bin	106.30033333333	0
bin	106.33366666667	0
bin	106.367	0
bin	106.40033333333	0
bin	106.43366666667	0
bin	106.467	0
bin	106.50033333333	0
bin	106.53366666667	0
bin	106.567	0
bin	106.60033333333	0
bin	106.63366666667	0
bin	106.667	1
bin	106.70033333333	0
bin	106.73366666667	0
bin	106.767	0
bin	106.80033333333	0
bin	106.83366666667	0
bin	106.867	0
bin	106.90033333333	0
bin	106.93366666667	0
bin	106.967	0
bin	107.00033333333	0
bin	107.03366666667	0
bin	107.067	0
bin	107.10033333333	0
bin	107.13366666667	0
bin	107.167	0
statistic RandomGeometricGraph.rgnv[11] 	arrivalPerc:histogram
field count 1
field mean 1
field stddev nan
field sum 1
field sqrsum 1
field min 1
field max 1
attr interpolationmode  none
attr source  count(arrival)
attr title  "arrival perc, histogram"
bin	-INF	0
bin	0	0
bin	1	1
bin	2	0
statistic RandomGeometricGraph.rgnv[12] 	arrivalTime:histogram
field count 1
field mean 147.782
field stddev nan
field sum 147.782
field sqrsum 21839.519524
field min 147.782
field max 147.782
attr interpolationmode  none
attr source  arrivalTime
attr title  "arrival time, histogram"
bin	-INF	0
bin	147.282	0
bin	147.31533333333	0
bin	147.34866666667	0
bin	147.382	0
bin	147.41533333333	0
bin	147.44866666667	0
bin	147.482	0
bin	147.51533333333	0
bin	147.54866666667	0
bin	147.582	0
bin	147.61533333333	0
bin	147.64866666667	0
bin	147.682	0
bin	147.71533333333	0
bin	147.74866666667	0
bin	147.782	1
bin	147.81533333333	0
bin	147.84866666667	0
bin	147.882	0
bin	147.91533333333	0
bin	147.94866666667	0
bin	147.982	0
bin	148.01533333333	0
bin	148.04866666667	0
bin	148.082	0
bin	148.11533333333	0
bin	148.14866666667	0
bin	148.182	0
bin	148.21533333333	0
bin	148.24866666667	0
bin	148.282	0
statistic RandomGeometricGraph.rgnv[12] 	arrivalPerc:histogram
field count 1
field mean 1
field stddev nan
field sum 1
field sqrsum 1
field min 1
field max 1
attr interpolationmode  none
attr source  count(arrival)
attr title  "arrival perc, histogram"
bin	-INF	0
bin	0	0
bin	1	1
bin	2	0
statistic RandomGeometricGraph.rgnv[13] 	arrivalTime:histogram
field count 1
field mean 106.667
field stddev nan
field sum 106.667
field sqrsum 11377.848889
field min 106.667
field max 106.667
attr interpolationmode  none
attr source  arrivalTime
attr title  "arrival time, histogram"
bin	-INF	0
bin	106.167	0
bin	106.20033333333	0
bin	106.23366666667	0
bin	106.267	0
bin	106.30033333333	0
bin	106.33366666667	0
bin	106.367	0
bin	106.40033333333	0
bin	106.43366666667	0
bin	106.467	0
bin	106.50033333333	0
bin	106.53366666667	0
bin	106.567	0
bin	106.60033333333	0
bin	106.63366666667	0
bin	106.667	1
bin	106.70033333333	0
bin	106.73366666667	0
bin	106.767	0
bin	106.80033333333	0
bin	106.83366666667	0
bin	106.867	0
bin	106.90033333333	0
bin	106.93366666667	0
bin	106.967	0
bin	107.00033333333	0
bin	107.03366666667	0
bin	107.067	0
bin	107.10033333333	0
bin	107.13366666667	0
bin	107.167	0
statistic RandomGeometricGraph.rgnv[13] 	arrivalPerc:histogram
field count 1
field mean 1
field stddev nan
field sum 1
field sqrsum 1
field min 1
field max 1
attr interpolationmode  none
attr source  count(arrival)
attr title  "arrival perc, histogram"
bin	-INF	0
bin	0	0
bin	1	1
bin	2	0
statistic RandomGeometricGraph.rgnv[14] 	arrivalTime:histogram
field count 1
field mean 143.33
field stddev nan
field sum 143.33
field sqrsum 20543.4889
field min 143.33
field max 143.33
attr interpolationmode  none
attr source  arrivalTime
attr title  "arrival time, histogram"
bin	-INF	0
bin	142.83	0
bin	142.86333333333	0
bin	142.89666666667	0
bin	142.93	0
bin	142.96333333333	0
bin	142.99666666667	0
bin	143.03	0
bin	143.06333333333	0
bin	143.09666666667	0
bin	143.13	0
bin	143.16333333333	0
bin	143.19666666667	0
bin	143.23	0
bin	143.26333333333	0
bin	143.29666666667	0
bin	143.33	1
bin	143.36333333333	0
bin	143.39666666667	0
bin	143.43	0
bin	143.46333333333	0
bin	143.49666666667	0
bin	143.53	0
bin	143.56333333333	0
bin	143.59666666667	0
bin	143.63	0
bin	143.66333333333	0
bin	143.69666666667	0
bin	143.73	0
bin	143.76333333333	0
bin	143.79666666667	0
bin	143.83	0
statistic RandomGeometricGraph.rgnv[14] 	arrivalPerc:histogram
field count 1
field mean 1
field stddev nan
field sum 1
field sqrsum 1
field min 1
field max 1
attr interpolationmode  none
attr source  count(arrival)
attr title  "arrival perc, histogram"
bin	-INF	0
bin	0	0
bin	1	1
bin	2	0
statistic RandomGeometricGraph.rgnv[15] 	arrivalTime:histogram
field count 1
field mean 131.109
field stddev nan
field sum 131.109
field sqrsum 17189.569881
field min 131.109
field max 131.109
attr interpolationmode  none
attr source  arrivalTime
attr title  "arrival time, histogram"
bin	-INF	0
bin	130.609	0
bin	130.64233333333	0
bin	130.67566666667	0
bin	130.709	0
bin	130.74233333333	0
bin	130.77566666667	0
bin	130.809	0
bin	130.84233333333	0
bin	130.87566666667	0
bin	130.909	0
bin	130.94233333333	0
bin	130.97566666667	0
bin	131.009	0
bin	131.04233333333	0
bin	131.07566666667	0
bin	131.109	1
bin	131.14233333333	0
bin	131.17566666667	0
bin	131.209	0
bin	131.24233333333	0
bin	131.27566666667	0
bin	131.309	0
bin	131.34233333333	0
bin	131.37566666667	0
bin	131.409	0
bin	131.44233333333	0
bin	131.47566666667	0
bin	131.509	0
bin	131.54233333333	0
bin	131.57566666667	0
bin	131.609	0
statistic RandomGeometricGraph.rgnv[15] 	arrivalPerc:histogram
field count 1
field mean 1
field stddev nan
field sum 1
field sqrsum 1
field min 1
field max 1
attr interpolationmode  none
attr source  count(arrival)
attr title  "arrival perc, histogram"
bin	-INF	0
bin	0	0
bin	1	1
bin	2	0
statistic RandomGeometricGraph.rgnv[16] 	arrivalTime:histogram
field count 1
field mean 79.406
field stddev nan
field sum 79.406
field sqrsum 6305.312836
field min 79.406
field max 79.406
attr interpolationmode  none
attr source  arrivalTime
attr title  "arrival time, histogram"
bin	-INF	0
bin	78.906	0
bin	78.939333333333	0
bin	78.972666666667	0
bin	79.006	0
bin	79.039333333333	0
bin	79.072666666667	0
bin	79.106	0
bin	79.139333333333	0
bin	79.172666666667	0
bin	79.206	0
bin	79.239333333333	0
bin	79.272666666667	0
bin	79.306	0
bin	79.339333333333	0
bin	79.372666666667	0
bin	79.406	1
bin	79.439333333333	0
bin	79.472666666667	0
bin	79.506	0
bin	79.539333333333	0
bin	79.572666666667	0
bin	79.606	0
bin	79.639333333333	0
bin	79.672666666667	0
bin	79.706	0
bin	79.739333333333	0
bin	79.772666666667	0
bin	79.806	0
bin	79.839333333333	0
bin	79.872666666667	0
bin	79.906	0
statistic RandomGeometricGraph.rgnv[16] 	arrivalPerc:histogram
field count 1
field mean 1
field stddev nan
field sum 1
field sqrsum 1
field min 1
field max 1
attr interpolationmode  none
attr source  count(arrival)
attr title  "arrival perc, histogram"
bin	-INF	0
bin	0	0
bin	1	1
bin	2	0
statistic RandomGeometricGraph.rgnv[17] 	arrivalTime:histogram
field count 1
field mean 143.34
field stddev nan
field sum 143.34
field sqrsum 20546.3556
field min 143.34
field max 143.34
attr interpolationmode  none
attr source  arrivalTime
attr title  "arrival time, histogram"
bin	-INF	0
bin	142.84	0
bin	142.87333333333	0
bin	142.90666666667	0
bin	142.94	0
bin	142.97333333333	0
bin	143.00666666667	0
bin	143.04	0
bin	143.07333333333	0
bin	143.10666666667	0
bin	143.14	0
bin	143.17333333333	0
bin	143.20666666667	0
bin	143.24	0
bin	143.27333333333	0
bin	143.30666666667	0
bin	143.34	1
bin	143.37333333333	0
bin	143.40666666667	0
bin	143.44	0
bin	143.47333333333	0
bin	143.50666666667	0
bin	143.54	0
bin	143.57333333333	0
bin	143.60666666667	0
bin	143.64	0
bin	143.67333333333	0
bin	143.70666666667	0
bin	143.74	0
bin	143.77333333333	0
bin	143.80666666667	0
bin	143.84	0
statistic RandomGeometricGraph.rgnv[17] 	arrivalPerc:histogram
field count 1
field mean 1
field stddev nan
field sum 1
field sqrsum 1
field min 1
field max 1
attr interpolationmode  none
attr source  count(arrival)
attr title  "arrival perc, histogram"
bin	-INF	0
bin	0	0
bin	1	1
bin	2	0
statistic RandomGeometricGraph.rgnv[18] 	arrivalTime:histogram
field count 1
field mean 207.802
field stddev nan
field sum 207.802
field sqrsum 43181.671204
field min 207.802
field max 207.802
attr interpolationmode  none
attr source  arrivalTime
attr title  "arrival time, histogram"
bin	-INF	0
bin	207.302	0
bin	207.33533333333	0
bin	207.36866666667	0
bin	207.402	0
bin	207.43533333333	0
bin	207.46866666667	0
bin	207.502	0
bin	207.53533333333	0
bin	207.56866666667	0
bin	207.602	0
bin	207.63533333333	0
bin	207.66866666667	0
bin	207.702	0
bin	207.73533333333	0
bin	207.76866666667	0
bin	207.802	1
bin	207.83533333333	0
bin	207.86866666667	0
bin	207.902	0
bin	207.93533333333	0
bin	207.96866666667	0
bin	208.002	0
bin	208.03533333333	0
bin	208.06866666667	0
bin	208.102	0
bin	208.13533333333	0
bin	208.16866666667	0
bin	208.202	0
bin	208.23533333333	0
bin	208.26866666667	0
bin	208.302	0
statistic RandomGeometricGraph.rgnv[18] 	arrivalPerc:histogram
field count 1
field mean 1
field stddev nan
field sum 1
field sqrsum 1
field min 1
field max 1
attr interpolationmode  none
attr source  count(arrival)
attr title  "arrival perc, histogram"
bin	-INF	0
bin	0	0
bin	1	1
bin	2	0
statistic RandomGeometricGraph.rgnv[19] 	arrivalTime:histogram
field count 1
field mean 187.802
field stddev nan
field sum 187.802
field sqrsum 35269.591204
field min 187.802
field max 187.802
attr interpolationmode  none
attr source  arrivalTime
attr title  "arrival time, histogram"
bin	-INF	0
bin	187.302	0
bin	187.33533333333	0
bin	187.36866666667	0
bin	187.402	0
bin	187.43533333333	0
bin	187.46866666667	0
bin	187.502	0
bin	187.53533333333	0
bin	187.56866666667	0
bin	187.602	0
bin	187.63533333333	0
bin	187.66866666667	0
bin	187.702	0
bin	187.73533333333	0
bin	187.76866666667	0
bin	187.802	1
bin	187.83533333333	0
bin	187.86866666667	0
bin	187.902	0
bin	187.93533333333	0
bin	187.96866666667	0
bin	188.002	0
bin	188.03533333333	0
bin	188.06866666667	0
bin	188.102	0
bin	188.13533333333	0
bin	188.16866666667	0
bin	188.202	0
bin	188.23533333333	0
bin	188.26866666667	0
bin	188.302	0
statistic RandomGeometricGraph.rgnv[19] 	arrivalPerc:histogram
field count 1
field mean 1
field stddev nan
field sum 1
field sqrsum 1
field min 1
field max 1
attr interpolationmode  none
attr source  count(arrival)
attr title  "arrival perc, histogram"
bin	-INF	0
bin	0	0
bin	1	1
bin	2	0
statistic RandomGeometricGraph.rgnv[20] 	arrivalTime:histogram
field count 1
field mean 113.878
field stddev nan
field sum 113.878
field sqrsum 12968.198884
field min 113.878
field max 113.878
attr interpolationmode  none
attr source  arrivalTime
attr title  "arrival time, histogram"
bin	-INF	0
bin	113.378	0
bin	113.41133333333	0
bin	113.44466666667	0
bin	113.478	0
bin	113.51133333333	0
bin	113.54466666667	0
bin	113.578	0
bin	113.61133333333	0
bin	113.64466666667	0
bin	113.678	0
bin	113.71133333333	0
bin	113.74466666667	0
bin	113.778	0
bin	113.81133333333	0
bin	113.84466666667	0
bin	113.878	1
bin	113.91133333333	0
bin	113.94466666667	0
bin	113.978	0
bin	114.01133333333	0
bin	114.04466666667	0
bin	114.078	0
bin	114.11133333333	0
bin	114.14466666667	0
bin	114.178	0
bin	114.21133333333	0
bin	114.24466666667	0
bin	114.278	0
bin	114.31133333333	0
bin	114.34466666667	0
bin	114.378	0
statistic RandomGeometricGraph.rgnv[20] 	arrivalPerc:histogram
field count 1
field mean 1
field stddev nan
field sum 1
field sqrsum 1
field min 1
field max 1
attr interpolationmode  none
attr source  count(arrival)
attr title  "arrival perc, histogram"
bin	-INF	0
bin	0	0
bin	1	1
bin	2	0
statistic RandomGeometricGraph.rgnv[21] 	arrivalTime:histogram
field count 1
field mean 155.561
field stddev nan
field sum 155.561
field sqrsum 24199.224721
field min 155.561
field max 155.561
attr interpolationmode  none
attr source  arrivalTime
attr title  "arrival time, histogram"
bin	-INF	0
bin	155.061	0
bin	155.09433333333	0
bin	155.12766666667	0
bin	155.161	0
bin	155.19433333333	0
bin	155.22766666667	0
bin	155.261	0
bin	155.29433333333	0
bin	155.32766666667	0
bin	155.361	0
bin	155.39433333333	0
bin	155.42766666667	0
bin	155.461	0
bin	155.49433333333	0
bin	155.52766666667	0
bin	155.561	1
bin	155.59433333333	0
bin	155.62766666667	0
bin	155.661	0
bin	155.69433333333	0
bin	155.72766666667	0
bin	155.761	0
bin	155.79433333333	0
bin	155.82766666667	0
bin	155.861	0
bin	155.89433333333	0
bin	155.92766666667	0
bin	155.961	0
bin	155.99433333333	0
bin	156.02766666667	0
bin	156.061	0
statistic RandomGeometricGraph.rgnv[21] 	arrivalPerc:histogram
field count 1
field mean 1
field stddev nan
field sum 1
field sqrsum 1
field min 1
field max 1
attr interpolationmode  none
attr source  count(arrival)
attr title  "arrival perc, histogram"
bin	-INF	0
bin	0	0
bin	1	1
bin	2	0
statistic RandomGeometricGraph.rgnv[22] 	arrivalTime:histogram
field count 1
field mean 178.34
field stddev nan
field sum 178.34
field sqrsum 31805.1556
field min 178.34
field max 178.34
attr interpolationmode  none
attr source  arrivalTime
attr title  "arrival time, histogram"
bin	-INF	0
bin	177.84	0
bin	177.87333333333	0
bin	177.90666666667	0
bin	177.94	0
bin	177.97333333333	0
bin	178.00666666667	0
bin	178.04	0
bin	178.07333333333	0
bin	178.10666666667	0
bin	178.14	0
bin	178.17333333333	0
bin	178.20666666667	0
bin	178.24	0
bin	178.27333333333	0
bin	178.30666666667	0
bin	178.34	1
bin	178.37333333333	0
bin	178.40666666667	0
bin	178.44	0
bin	178.47333333333	0
bin	178.50666666667	0
bin	178.54	0
bin	178.57333333333	0
bin	178.60666666667	0
bin	178.64	0
bin	178.67333333333	0
bin	178.70666666667	0
bin	178.74	0
bin	178.77333333333	0
bin	178.80666666667	0
bin	178.84	0
statistic RandomGeometricGraph.rgnv[22] 	arrivalPerc:histogram
field count 1
field mean 1
field stddev nan
field sum 1
field sqrsum 1
field min 1
field max 1
attr interpolationmode  none
attr source  count(arrival)
attr title  "arrival perc, histogram"
bin	-INF	0
bin	0	0
bin	1	1
bin	2	0
statistic RandomGeometricGraph.rgnv[23] 	arrivalTime:histogram
field count 1
field mean 133.32
field stddev nan
field sum 133.32
field sqrsum 17774.2224
field min 133.32
field max 133.32
attr interpolationmode  none
attr source  arrivalTime
attr title  "arrival time, histogram"
bin	-INF	0
bin	132.82	0
bin	132.85333333333	0
bin	132.88666666667	0
bin	132.92	0
bin	132.95333333333	0
bin	132.98666666667	0
bin	133.02	0
bin	133.05333333333	0
bin	133.08666666667	0
bin	133.12	0
bin	133.15333333333	0
bin	133.18666666667	0
bin	133.22	0
bin	133.25333333333	0
bin	133.28666666667	0
bin	133.32	1
bin	133.35333333333	0
bin	133.38666666667	0
bin	133.42	0
bin	133.45333333333	0
bin	133.48666666667	0
bin	133.52	0
bin	133.55333333333	0
bin	133.58666666667	0
bin	133.62	0
bin	133.65333333333	0
bin	133.68666666667	0
bin	133.72	0
bin	133.75333333333	0
bin	133.78666666667	0
bin	133.82	0
statistic RandomGeometricGraph.rgnv[23] 	arrivalPerc:histogram
field count 1
field mean 1
field stddev nan
field sum 1
field sqrsum 1
field min 1
field max 1
attr interpolationmode  none
attr source  count(arrival)
attr title  "arrival perc, histogram"
bin	-INF	0
bin	0	0
bin	1	1
bin	2	0
statistic RandomGeometricGraph.rgnv[24] 	arrivalTime:histogram
field count 1
field mean 111.089
field stddev nan
field sum 111.089
field sqrsum 12340.765921
field min 111.089
field max 111.089
attr interpolationmode  none
attr source  arrivalTime
attr title  "arrival time, histogram"
bin	-INF	0
bin	110.589	0
bin	110.62233333333	0
bin	110.65566666667	0
bin	110.689	0
bin	110.72233333333	0
bin	110.75566666667	0
bin	110.789	0
bin	110.82233333333	0
bin	110.85566666667	0
bin	110.889	0
bin	110.92233333333	0
bin	110.95566666667	0
bin	110.989	0
bin	111.02233333333	0
bin	111.05566666667	0
bin	111.089	1
bin	111.12233333333	0
bin	111.15566666667	0
bin	111.189	0
bin	111.22233333333	0
bin	111.25566666667	0
bin	111.289	0
bin	111.32233333333	0
bin	111.35566666667	0
bin	111.389	0
bin	111.42233333333	0
bin	111.45566666667	0
bin	111.489	0
bin	111.52233333333	0
bin	111.55566666667	0
bin	111.589	0
statistic RandomGeometricGraph.rgnv[24] 	arrivalPerc:histogram
field count 1
field mean 1
field stddev nan
field sum 1
field sqrsum 1
field min 1
field max 1
attr interpolationmode  none
attr source  count(arrival)
attr title  "arrival perc, histogram"
bin	-INF	0
bin	0	0
bin	1	1
bin	2	0
statistic RandomGeometricGraph.rgnv[25] 	arrivalTime:histogram
field count 1
field mean 133.32
field stddev nan
field sum 133.32
field sqrsum 17774.2224
field min 133.32
field max 133.32
attr interpolationmode  none
attr source  arrivalTime
attr title  "arrival time, histogram"
bin	-INF	0
bin	132.82	0
bin	132.85333333333	0
bin	132.88666666667	0
bin	132.92	0
bin	132.95333333333	0
bin	132.98666666667	0
bin	133.02	0
bin	133.05333333333	0
bin	133.08666666667	0
bin	133.12	0
bin	133.15333333333	0
bin	133.18666666667	0
bin	133.22	0
bin	133.25333333333	0
bin	133.28666666667	0
bin	133.32	1
bin	133.35333333333	0
bin	133.38666666667	0
bin	133.42	0
bin	133.45333333333	0
bin	133.48666666667	0
bin	133.52	0
bin	133.55333333333	0
bin	133.58666666667	0
bin	133.62	0
bin	133.65333333333	0
bin	133.68666666667	0
bin	133.72	0
bin	133.75333333333	0
bin	133.78666666667	0
bin	133.82	0
statistic RandomGeometricGraph.rgnv[25] 	arrivalPerc:histogram
field count 1
field mean 1
field stddev nan
field sum 1
field sqrsum 1
field min 1
field max 1
attr interpolationmode  none
attr source  count(arrival)
attr title  "arrival perc, histogram"
bin	-INF	0
bin	0	0
bin	1	1
bin	2	0
statistic RandomGeometricGraph.rgnv[26] 	arrivalTime:histogram
field count 1
field mean 138.33
field stddev nan
field sum 138.33
field sqrsum 19135.1889
field min 138.33
field max 138.33
attr interpolationmode  none
attr source  arrivalTime
attr title  "arrival time, histogram"
bin	-INF	0
bin	137.83	0
bin	137.86333333333	0
bin	137.89666666667	0
bin	137.93	0
bin	137.96333333333	0
bin	137.99666666667	0
bin	138.03	0
bin	138.06333333333	0
bin	138.09666666667	0
bin	138.13	0
bin	138.16333333333	0
bin	138.19666666667	0
bin	138.23	0
bin	138.26333333333	0
bin	138.29666666667	0
bin	138.33	1
bin	138.36333333333	0
bin	138.39666666667	0
bin	138.43	0
bin	138.46333333333	0
bin	138.49666666667	0
bin	138.53	0
bin	138.56333333333	0
bin	138.59666666667	0
bin	138.63	0
bin	138.66333333333	0
bin	138.69666666667	0
bin	138.73	0
bin	138.76333333333	0
bin	138.79666666667	0
bin	138.83	0
statistic RandomGeometricGraph.rgnv[26] 	arrivalPerc:histogram
field count 1
field mean 1
field stddev nan
field sum 1
field sqrsum 1
field min 1
field max 1
attr interpolationmode  none
attr source  count(arrival)
attr title  "arrival perc, histogram"
bin	-INF	0
bin	0	0
bin	1	1
bin	2	0
statistic RandomGeometricGraph.rgnv[27] 	arrivalTime:histogram
field count 1
field mean 185.571
field stddev nan
field sum 185.571
field sqrsum 34436.596041
field min 185.571
field max 185.571
attr interpolationmode  none
attr source  arrivalTime
attr title  "arrival time, histogram"
bin	-INF	0
bin	185.071	0
bin	185.10433333333	0
bin	185.13766666667	0
bin	185.171	0
bin	185.20433333333	0
bin	185.23766666667	0
bin	185.271	0
bin	185.30433333333	0
bin	185.33766666667	0
bin	185.371	0
bin	185.40433333333	0
bin	185.43766666667	0
bin	185.471	0
bin	185.50433333333	0
bin	185.53766666667	0
bin	185.571	1
bin	185.60433333333	0
bin	185.63766666667	0
bin	185.671	0
bin	185.70433333333	0
bin	185.73766666667	0
bin	185.771	0
bin	185.80433333333	0
bin	185.83766666667	0
bin	185.871	0
bin	185.90433333333	0
bin	185.93766666667	0
bin	185.971	0
bin	186.00433333333	0
bin	186.03766666667	0
bin	186.071	0
statistic RandomGeometricGraph.rgnv[27] 	arrivalPerc:histogram
field count 1
field mean 1
field stddev nan
field sum 1
field sqrsum 1
field min 1
field max 1
attr interpolationmode  none
attr source  count(arrival)
attr title  "arrival perc, histogram"
bin	-INF	0
bin	0	0
bin	1	1
bin	2	0
statistic RandomGeometricGraph.rgnv[28] 	arrivalTime:histogram
field count 1
field mean 185.571
field stddev nan
field sum 185.571
field sqrsum 34436.596041
field min 185.571
field max 185.571
attr interpolationmode  none
attr source  arrivalTime
attr title  "arrival time, histogram"
bin	-INF	0
bin	185.071	0
bin	185.10433333333	0
bin	185.13766666667	0
bin	185.171	0
bin	185.20433333333	0
bin	185.23766666667	0
bin	185.271	0
bin	185.30433333333	0
bin	185.33766666667	0
bin	185.371	0
bin	185.40433333333	0
bin	185.43766666667	0
bin	185.471	0
bin	185.50433333333	0
bin	185.53766666667	0
bin	185.571	1
bin	185.60433333333	0
bin	185.63766666667	0
bin	185.671	0
bin	185.70433333333	0
bin	185.73766666667	0
bin	185.771	0
bin	185.80433333333	0
bin	185.83766666667	0
bin	185.871	0
bin	185.90433333333	0
bin	185.93766666667	0
bin	185.971	0
bin	186.00433333333	0
bin	186.03766666667	0
bin	186.071	0
statistic RandomGeometricGraph.rgnv[28] 	arrivalPerc:histogram
field count 1
field mean 1
field stddev nan
field sum 1
field sqrsum 1
field min 1
field max 1
attr interpolationmode  none
attr source  count(arrival)
attr title  "arrival perc, histogram"
bin	-INF	0
bin	0	0
bin	1	1
bin	2	0
statistic RandomGeometricGraph.rgnv[29] 	arrivalTime:histogram
field count 1
field mean 123.888
field stddev nan
field sum 123.888
field sqrsum 15348.236544
field min 123.888
field max 123.888
attr interpolationmode  none
attr source  arrivalTime
attr title  "arrival time, histogram"
bin	-INF	0
bin	123.388	0
bin	123.42133333333	0
bin	123.45466666667	0
bin	123.488	0
bin	123.52133333333	0
bin	123.55466666667	0
bin	123.588	0
bin	123.62133333333	0
bin	123.65466666667	0
bin	123.688	0
bin	123.72133333333	0
bin	123.75466666667	0
bin	123.788	0
bin	123.82133333333	0
bin	123.85466666667	0
bin	123.888	1
bin	123.92133333333	0
bin	123.95466666667	0
bin	123.988	0
bin	124.02133333333	0
bin	124.05466666667	0
bin	124.088	0
bin	124.12133333333	0
bin	124.15466666667	0
bin	124.188	0
bin	124.22133333333	0
bin	124.25466666667	0
bin	124.288	0
bin	124.32133333333	0
bin	124.35466666667	0
bin	124.388	0
statistic RandomGeometricGraph.rgnv[29] 	arrivalPerc:histogram
field count 1
field mean 1
field stddev nan
field sum 1
field sqrsum 1
field min 1
field max 1
attr interpolationmode  none
attr source  count(arrival)
attr title  "arrival perc, histogram"
bin	-INF	0
bin	0	0
bin	1	1
bin	2	0
statistic RandomGeometricGraph.rgnv[30] 	arrivalTime:histogram
field count 1
field mean 194.475
field stddev nan
field sum 194.475
field sqrsum 37820.525625
field min 194.475
field max 194.475
attr interpolationmode  none
attr source  arrivalTime
attr title  "arrival time, histogram"
bin	-INF	0
bin	193.975	0
bin	194.00833333333	0
bin	194.04166666667	0
bin	194.075	0
bin	194.10833333333	0
bin	194.14166666667	0
bin	194.175	0
bin	194.20833333333	0
bin	194.24166666667	0
bin	194.275	0
bin	194.30833333333	0
bin	194.34166666667	0
bin	194.375	0
bin	194.40833333333	0
bin	194.44166666667	0
bin	194.475	1
bin	194.50833333333	0
bin	194.54166666667	0
bin	194.575	0
bin	194.60833333333	0
bin	194.64166666667	0
bin	194.675	0
bin	194.70833333333	0
bin	194.74166666667	0
bin	194.775	0
bin	194.80833333333	0
bin	194.84166666667	0
bin	194.875	0
bin	194.90833333333	0
bin	194.94166666667	0
bin	194.975	0
statistic RandomGeometricGraph.rgnv[30] 	arrivalPerc:histogram
field count 1
field mean 1
field stddev nan
field sum 1
field sqrsum 1
field min 1
field max 1
attr interpolationmode  none
attr source  count(arrival)
attr title  "arrival perc, histogram"
bin	-INF	0
bin	0	0
bin	1	1
bin	2	0
statistic RandomGeometricGraph.rgnv[31] 	arrivalTime:histogram
field count 1
field mean 123.32
field stddev nan
field sum 123.32
field sqrsum 15207.8224
field min 123.32
field max 123.32
attr interpolationmode  none
attr source  arrivalTime
attr title  "arrival time, histogram"
bin	-INF	0
bin	122.82	0
bin	122.85333333333	0
bin	122.88666666667	0
bin	122.92	0
bin	122.95333333333	0
bin	122.98666666667	0
bin	123.02	0
bin	123.05333333333	0
bin	123.08666666667	0
bin	123.12	0
bin	123.15333333333	0
bin	123.18666666667	0
bin	123.22	0
bin	123.25333333333	0
bin	123.28666666667	0
bin	123.32	1
bin	123.35333333333	0
bin	123.38666666667	0
bin	123.42	0
bin	123.45333333333	0
bin	123.48666666667	0
bin	123.52	0
bin	123.55333333333	0
bin	123.58666666667	0
bin	123.62	0
bin	123.65333333333	0
bin	123.68666666667	0
bin	123.72	0
bin	123.75333333333	0
bin	123.78666666667	0
bin	123.82	0
statistic RandomGeometricGraph.rgnv[31] 	arrivalPerc:histogram
field count 1
field mean 1
field stddev nan
field sum 1
field sqrsum 1
field min 1
field max 1
attr interpolationmode  none
attr source  count(arrival)
attr title  "arrival perc, histogram"
bin	-INF	0
bin	0	0
bin	1	1
bin	2	0
statistic RandomGeometricGraph.rgnv[32] 	arrivalTime:histogram
field count 1
field mean 155.561
field stddev nan
field sum 155.561
field sqrsum 24199.224721
field min 155.561
field max 155.561
attr interpolationmode  none
attr source  arrivalTime
attr title  "arrival time, histogram"
bin	-INF	0
bin	155.061	0
bin	155.09433333333	0
bin	155.12766666667	0
bin	155.161	0
bin	155.19433333333	0
bin	155.22766666667	0
bin	155.261	0
bin	155.29433333333	0
bin	155.32766666667	0
bin	155.361	0
bin	155.39433333333	0
bin	155.42766666667	0
bin	155.461	0
bin	155.49433333333	0
bin	155.52766666667	0
bin	155.561	1
bin	155.59433333333	0
bin	155.62766666667	0
bin	155.661	0
bin	155.69433333333	0
bin	155.72766666667	0
bin	155.761	0
bin	155.79433333333	0
bin	155.82766666667	0
bin	155.861	0
bin	155.89433333333	0
bin	155.92766666667	0
bin	155.961	0
bin	155.99433333333	0
bin	156.02766666667	0
bin	156.061	0
statistic RandomGeometricGraph.rgnv[32] 	arrivalPerc:histogram
field count 1
field mean 1
field stddev nan
field sum 1
field sqrsum 1
field min 1
field max 1
attr interpolationmode  none
attr source  count(arrival)
attr title  "arrival perc, histogram"
bin	-INF	0
bin	0	0
bin	1	1
bin	2	0
statistic RandomGeometricGraph.rgnv[33] 	arrivalTime:histogram
field count 1
field mean 101.657
field stddev nan
field sum 101.657
field sqrsum 10334.145649
field min 101.657
field max 101.657
attr interpolationmode  none
attr source  arrivalTime
attr title  "arrival time, histogram"
bin	-INF	0
bin	101.157	0
bin	101.19033333333	0
bin	101.22366666667	0
bin	101.257	0
bin	101.29033333333	0
bin	101.32366666667	0
bin	101.357	0
bin	101.39033333333	0
bin	101.42366666667	0
bin	101.457	0
bin	101.49033333333	0
bin	101.52366666667	0
bin	101.557	0
bin	101.59033333333	0
bin	101.62366666667	0
bin	101.657	1
bin	101.69033333333	0
bin	101.72366666667	0
bin	101.757	0
bin	101.79033333333	0
bin	101.82366666667	0
bin	101.857	0
bin	101.89033333333	0
bin	101.92366666667	0
bin	101.957	0
bin	101.99033333333	0
bin	102.02366666667	0
bin	102.057	0
bin	102.09033333333	0
bin	102.12366666667	0
bin	102.157	0
statistic RandomGeometricGraph.rgnv[33] 	arrivalPerc:histogram
field count 1
field mean 1
field stddev nan
field sum 1
field sqrsum 1
field min 1
field max 1
attr interpolationmode  none
attr source  count(arrival)
attr title  "arrival perc, histogram"
bin	-INF	0
bin	0	0
bin	1	1
bin	2	0
statistic RandomGeometricGraph.rgnv[34] 	arrivalTime:histogram
field count 1
field mean 113.878
field stddev nan
field sum 113.878
field sqrsum 12968.198884
field min 113.878
field max 113.878
attr interpolationmode  none
attr source  arrivalTime
attr title  "arrival time, histogram"
bin	-INF	0
bin	113.378	0
bin	113.41133333333	0
bin	113.44466666667	0
bin	113.478	0
bin	113.51133333333	0
bin	113.54466666667	0
bin	113.578	0
bin	113.61133333333	0
bin	113.64466666667	0
bin	113.678	0
bin	113.71133333333	0
bin	113.74466666667	0
bin	113.778	0
bin	113.81133333333	0
bin	113.84466666667	0
bin	113.878	1
bin	113.91133333333	0
bin	113.94466666667	0
bin	113.978	0
bin	114.01133333333	0
bin	114.04466666667	0
bin	114.078	0
bin	114.11133333333	0
bin	114.14466666667	0
bin	114.178	0
bin	114.21133333333	0
bin	114.24466666667	0
bin	114.278	0
bin	114.31133333333	0
bin	114.34466666667	0
bin	114.378	0
statistic RandomGeometricGraph.rgnv[34] 	arrivalPerc:histogram
field count 1
field mean 1
field stddev nan
field sum 1
field sqrsum 1
field min 1
field max 1
attr interpolationmode  none
attr source  count(arrival)
attr title  "arrival perc, histogram"
bin	-INF	0
bin	0	0
bin	1	1
bin	2	0
statistic RandomGeometricGraph.rgnv[35] 	arrivalTime:histogram
field count 1
field mean 173.34
field stddev nan
field sum 173.34
field sqrsum 30046.7556
field min 173.34
field max 173.34
attr interpolationmode  none
attr source  arrivalTime
attr title  "arrival time, histogram"
bin	-INF	0
bin	172.84	0
bin	172.87333333333	0
bin	172.90666666667	0
bin	172.94	0
bin	172.97333333333	0
bin	173.00666666667	0
bin	173.04	0
bin	173.07333333333	0
bin	173.10666666667	0
bin	173.14	0
bin	173.17333333333	0
bin	173.20666666667	0
bin	173.24	0
bin	173.27333333333	0
bin	173.30666666667	0
bin	173.34	1
bin	173.37333333333	0
bin	173.40666666667	0
bin	173.44	0
bin	173.47333333333	0
bin	173.50666666667	0
bin	173.54	0
bin	173.57333333333	0
bin	173.60666666667	0
bin	173.64	0
bin	173.67333333333	0
bin	173.70666666667	0
bin	173.74	0
bin	173.77333333333	0
bin	173.80666666667	0
bin	173.84	0
statistic RandomGeometricGraph.rgnv[35] 	arrivalPerc:histogram
field count 1
field mean 1
field stddev nan
field sum 1
field sqrsum 1
field min 1
field max 1
attr interpolationmode  none
attr source  count(arrival)
attr title  "arrival perc, histogram"
bin	-INF	0
bin	0	0
bin	1	1
bin	2	0
statistic RandomGeometricGraph.rgnv[36] 	arrivalTime:histogram
field count 1
field mean 192.792
field stddev nan
field sum 192.792
field sqrsum 37168.755264
field min 192.792
field max 192.792
attr interpolationmode  none
attr source  arrivalTime
attr title  "arrival time, histogram"
bin	-INF	0
bin	192.292	0
bin	192.32533333333	0
bin	192.35866666667	0
bin	192.392	0
bin	192.42533333333	0
bin	192.45866666667	0
bin	192.492	0
bin	192.52533333333	0
bin	192.55866666667	0
bin	192.592	0
bin	192.62533333333	0
bin	192.65866666667	0
bin	192.692	0
bin	192.72533333333	0
bin	192.75866666667	0
bin	192.792	1
bin	192.82533333333	0
bin	192.85866666667	0
bin	192.892	0
bin	192.92533333333	0
bin	192.95866666667	0
bin	192.992	0
bin	193.02533333333	0
bin	193.05866666667	0
bin	193.092	0
bin	193.12533333333	0
bin	193.15866666667	0
bin	193.192	0
bin	193.22533333333	0
bin	193.25866666667	0
bin	193.292	0
statistic RandomGeometricGraph.rgnv[36] 	arrivalPerc:histogram
field count 1
field mean 1
field stddev nan
field sum 1
field sqrsum 1
field min 1
field max 1
attr interpolationmode  none
attr source  count(arrival)
attr title  "arrival perc, histogram"
bin	-INF	0
bin	0	0
bin	1	1
bin	2	0
statistic RandomGeometricGraph.rgnv[37] 	arrivalTime:histogram
field count 1
field mean 171.119
field stddev nan
field sum 171.119
field sqrsum 29281.712161
field min 171.119
field max 171.119
attr interpolationmode  none
attr source  arrivalTime
attr title  "arrival time, histogram"
bin	-INF	0
bin	170.619	0
bin	170.65233333333	0
bin	170.68566666667	0
bin	170.719	0
bin	170.75233333333	0
bin	170.78566666667	0
bin	170.819	0
bin	170.85233333333	0
bin	170.88566666667	0
bin	170.919	0
bin	170.95233333333	0
bin	170.98566666667	0
bin	171.019	0
bin	171.05233333333	0
bin	171.08566666667	0
bin	171.119	1
bin	171.15233333333	0
bin	171.18566666667	0
bin	171.219	0
bin	171.25233333333	0
bin	171.28566666667	0
bin	171.319	0
bin	171.35233333333	0
bin	171.38566666667	0
bin	171.419	0
bin	171.45233333333	0
bin	171.48566666667	0
bin	171.519	0
bin	171.55233333333	0
bin	171.58566666667	0
bin	171.619	0
statistic RandomGeometricGraph.rgnv[37] 	arrivalPerc:histogram
field count 1
field mean 1
field stddev nan
field sum 1
field sqrsum 1
field min 1
field max 1
attr interpolationmode  none
attr source  count(arrival)
attr title  "arrival perc, histogram"
bin	-INF	0
bin	0	0
bin	1	1
bin	2	0
statistic RandomGeometricGraph.rgnv[38] 	arrivalTime:histogram
field count 1
field mean 175.023
field stddev nan
field sum 175.023
field sqrsum 30633.050529
field min 175.023
field max 175.023
attr interpolationmode  none
attr source  arrivalTime
attr title  "arrival time, histogram"
bin	-INF	0
bin	174.523	0
bin	174.55633333333	0
bin	174.58966666667	0
bin	174.623	0
bin	174.65633333333	0
bin	174.68966666667	0
bin	174.723	0
bin	174.75633333333	0
bin	174.78966666667	0
bin	174.823	0
bin	174.85633333333	0
bin	174.88966666667	0
bin	174.923	0
bin	174.95633333333	0
bin	174.98966666667	0
bin	175.023	1
bin	175.05633333333	0
bin	175.08966666667	0
bin	175.123	0
bin	175.15633333333	0
bin	175.18966666667	0
bin	175.223	0
bin	175.25633333333	0
bin	175.28966666667	0
bin	175.323	0
bin	175.35633333333	0
bin	175.38966666667	0
bin	175.423	0
bin	175.45633333333	0
bin	175.48966666667	0
bin	175.523	0
statistic RandomGeometricGraph.rgnv[38] 	arrivalPerc:histogram
field count 1
field mean 1
field stddev nan
field sum 1
field sqrsum 1
field min 1
field max 1
attr interpolationmode  none
attr source  count(arrival)
attr title  "arrival perc, histogram"
bin	-INF	0
bin	0	0
bin	1	1
bin	2	0
statistic RandomGeometricGraph.rgnv[39] 	arrivalTime:histogram
field count 1
field mean 163.34
field stddev nan
field sum 163.34
field sqrsum 26679.9556
field min 163.34
field max 163.34
attr interpolationmode  none
attr source  arrivalTime
attr title  "arrival time, histogram"
bin	-INF	0
bin	162.84	0
bin	162.87333333333	0
bin	162.90666666667	0
bin	162.94	0
bin	162.97333333333	0
bin	163.00666666667	0
bin	163.04	0
bin	163.07333333333	0
bin	163.10666666667	0
bin	163.14	0
bin	163.17333333333	0
bin	163.20666666667	0
bin	163.24	0
bin	163.27333333333	0
bin	163.30666666667	0
bin	163.34	1
bin	163.37333333333	0
bin	163.40666666667	0
bin	163.44	0
bin	163.47333333333	0
bin	163.50666666667	0
bin	163.54	0
bin	163.57333333333	0
bin	163.60666666667	0
bin	163.64	0
bin	163.67333333333	0
bin	163.70666666667	0
bin	163.74	0
bin	163.77333333333	0
bin	163.80666666667	0
bin	163.84	0
statistic RandomGeometricGraph.rgnv[39] 	arrivalPerc:histogram
field count 1
field mean 1
field stddev nan
field sum 1
field sqrsum 1
field min 1
field max 1
attr interpolationmode  none
attr source  count(arrival)
attr title  "arrival perc, histogram"
bin	-INF	0
bin	0	0
bin	1	1
bin	2	0
statistic RandomGeometricGraph.rgnv[40] 	arrivalTime:histogram
field count 1
field mean 121.119
field stddev nan
field sum 121.119
field sqrsum 14669.812161
field min 121.119
field max 121.119
attr interpolationmode  none
attr source  arrivalTime
attr title  "arrival time, histogram"
bin	-INF	0
bin	120.619	0
bin	120.65233333333	0
bin	120.68566666667	0
bin	120.719	0
bin	120.75233333333	0
bin	120.78566666667	0
bin	120.819	0
bin	120.85233333333	0
bin	120.88566666667	0
bin	120.919	0
bin	120.95233333333	0
bin	120.98566666667	0
bin	121.019	0
bin	121.05233333333	0
bin	121.08566666667	0
bin	121.119	1
bin	121.15233333333	0
bin	121.18566666667	0
bin	121.219	0
bin	121.25233333333	0
bin	121.28566666667	0
bin	121.319	0
bin	121.35233333333	0
bin	121.38566666667	0
bin	121.419	0
bin	121.45233333333	0
bin	121.48566666667	0
bin	121.519	0
bin	121.55233333333	0
bin	121.58566666667	0
bin	121.619	0
statistic RandomGeometricGraph.rgnv[40] 	arrivalPerc:histogram
field count 1
field mean 1
field stddev nan
field sum 1
field sqrsum 1
field min 1
field max 1
attr interpolationmode  none
attr source  count(arrival)
attr title  "arrival perc, histogram"
bin	-INF	0
bin	0	0
bin	1	1
bin	2	0
statistic RandomGeometricGraph.rgnv[41] 	arrivalTime:histogram
field count 1
field mean 147.802
field stddev nan
field sum 147.802
field sqrsum 21845.431204
field min 147.802
field max 147.802
attr interpolationmode  none
attr source  arrivalTime
attr title  "arrival time, histogram"
bin	-INF	0
bin	147.302	0
bin	147.33533333333	0
bin	147.36866666667	0
bin	147.402	0
bin	147.43533333333	0
bin	147.46866666667	0
bin	147.502	0
bin	147.53533333333	0
bin	147.56866666667	0
bin	147.602	0
bin	147.63533333333	0
bin	147.66866666667	0
bin	147.702	0
bin	147.73533333333	0
bin	147.76866666667	0
bin	147.802	1
bin	147.83533333333	0
bin	147.86866666667	0
bin	147.902	0
bin	147.93533333333	0
bin	147.96866666667	0
bin	148.002	0
bin	148.03533333333	0
bin	148.06866666667	0
bin	148.102	0
bin	148.13533333333	0
bin	148.16866666667	0
bin	148.202	0
bin	148.23533333333	0
bin	148.26866666667	0
bin	148.302	0
statistic RandomGeometricGraph.rgnv[41] 	arrivalPerc:histogram
field count 1
field mean 1
field stddev nan
field sum 1
field sqrsum 1
field min 1
field max 1
attr interpolationmode  none
attr source  count(arrival)
attr title  "arrival perc, histogram"
bin	-INF	0
bin	0	0
bin	1	1
bin	2	0
statistic RandomGeometricGraph.rgnv[42] 	arrivalTime:histogram
field count 1
field mean 143.35
field stddev nan
field sum 143.35
field sqrsum 20549.2225
field min 143.35
field max 143.35
attr interpolationmode  none
attr source  arrivalTime
attr title  "arrival time, histogram"
bin	-INF	0
bin	142.85	0
bin	142.88333333333	0
bin	142.91666666667	0
bin	142.95	0
bin	142.98333333333	0
bin	143.01666666667	0
bin	143.05	0
bin	143.08333333333	0
bin	143.11666666667	0
bin	143.15	0
bin	143.18333333333	0
bin	143.21666666667	0
bin	143.25	0
bin	143.28333333333	0
bin	143.31666666667	0
bin	143.35	1
bin	143.38333333333	0
bin	143.41666666667	0
bin	143.45	0
bin	143.48333333333	0
bin	143.51666666667	0
bin	143.55	0
bin	143.58333333333	0
bin	143.61666666667	0
bin	143.65	0
bin	143.68333333333	0
bin	143.71666666667	0
bin	143.75	0
bin	143.78333333333	0
bin	143.81666666667	0
bin	143.85	0
statistic RandomGeometricGraph.rgnv[42] 	arrivalPerc:histogram
field count 1
field mean 1
field stddev nan
field sum 1
field sqrsum 1
field min 1
field max 1
attr interpolationmode  none
attr source  count(arrival)
attr title  "arrival perc, histogram"
bin	-INF	0
bin	0	0
bin	1	1
bin	2	0
statistic RandomGeometricGraph.rgnv[43] 	arrivalTime:histogram
field count 1
field mean 189.485
field stddev nan
field sum 189.485
field sqrsum 35904.565225
field min 189.485
field max 189.485
attr interpolationmode  none
attr source  arrivalTime
attr title  "arrival time, histogram"
bin	-INF	0
bin	188.985	0
bin	189.01833333333	0
bin	189.05166666667	0
bin	189.085	0
bin	189.11833333333	0
bin	189.15166666667	0
bin	189.185	0
bin	189.21833333333	0
bin	189.25166666667	0
bin	189.285	0
bin	189.31833333333	0
bin	189.35166666667	0
bin	189.385	0
bin	189.41833333333	0
bin	189.45166666667	0
bin	189.485	1
bin	189.51833333333	0
bin	189.55166666667	0
bin	189.585	0
bin	189.61833333333	0
bin	189.65166666667	0
bin	189.685	0
bin	189.71833333333	0
bin	189.75166666667	0
bin	189.785	0
bin	189.81833333333	0
bin	189.85166666667	0
bin	189.885	0
bin	189.91833333333	0
bin	189.95166666667	0
bin	189.985	0
statistic RandomGeometricGraph.rgnv[43] 	arrivalPerc:histogram
field count 1
field mean 1
field stddev nan
field sum 1
field sqrsum 1
field min 1
field max 1
attr interpolationmode  none
attr source  count(arrival)
attr title  "arrival perc, histogram"
bin	-INF	0
bin	0	0
bin	1	1
bin	2	0
statistic RandomGeometricGraph.rgnv[44] 	arrivalTime:histogram
field count 1
field mean 189.495
field stddev nan
field sum 189.495
field sqrsum 35908.355025
field min 189.495
field max 189.495
attr interpolationmode  none
attr source  arrivalTime
attr title  "arrival time, histogram"
bin	-INF	0
bin	188.995	0
bin	189.02833333333	0
bin	189.06166666667	0
bin	189.095	0
bin	189.12833333333	0
bin	189.16166666667	0
bin	189.195	0
bin	189.22833333333	0
bin	189.26166666667	0
bin	189.295	0
bin	189.32833333333	0
bin	189.36166666667	0
bin	189.395	0
bin	189.42833333333	0
bin	189.46166666667	0
bin	189.495	1
bin	189.52833333333	0
bin	189.56166666667	0
bin	189.595	0
bin	189.62833333333	0
bin	189.66166666667	0
bin	189.695	0
bin	189.72833333333	0
bin	189.76166666667	0
bin	189.795	0
bin	189.82833333333	0
bin	189.86166666667	0
bin	189.895	0
bin	189.92833333333	0
bin	189.96166666667	0
bin	189.995	0
statistic RandomGeometricGraph.rgnv[44] 	arrivalPerc:histogram
field count 1
field mean 1
field stddev nan
field sum 1
field sqrsum 1
field min 1
field max 1
attr interpolationmode  none
attr source  count(arrival)
attr title  "arrival perc, histogram"
bin	-INF	0
bin	0	0
bin	1	1
bin	2	0
statistic RandomGeometricGraph.rgnv[45] 	arrivalTime:histogram
field count 1
field mean 74.386
field stddev nan
field sum 74.386
field sqrsum 5533.276996
field min 74.386
field max 74.386
attr interpolationmode  none
attr source  arrivalTime
attr title  "arrival time, histogram"
bin	-INF	0
bin	73.886	0
bin	73.919333333333	0
bin	73.952666666667	0
bin	73.986	0
bin	74.019333333333	0
bin	74.052666666667	0
bin	74.086	0
bin	74.119333333333	0
bin	74.152666666667	0
bin	74.186	0
bin	74.219333333333	0
bin	74.252666666667	0
bin	74.286	0
bin	74.319333333333	0
bin	74.352666666667	0
bin	74.386	1
bin	74.419333333333	0
bin	74.452666666667	0
bin	74.486	0
bin	74.519333333333	0
bin	74.552666666667	0
bin	74.586	0
bin	74.619333333333	0
bin	74.652666666667	0
bin	74.686	0
bin	74.719333333333	0
bin	74.752666666667	0
bin	74.786	0
bin	74.819333333333	0
bin	74.852666666667	0
bin	74.886	0
statistic RandomGeometricGraph.rgnv[45] 	arrivalPerc:histogram
field count 1
field mean 1
field stddev nan
field sum 1
field sqrsum 1
field min 1
field max 1
attr interpolationmode  none
attr source  count(arrival)
attr title  "arrival perc, histogram"
bin	-INF	0
bin	0	0
bin	1	1
bin	2	0
statistic RandomGeometricGraph.rgnv[46] 	arrivalTime:histogram
field count 1
field mean 96.647
field stddev nan
field sum 96.647
field sqrsum 9340.642609
field min 96.647
field max 96.647
attr interpolationmode  none
attr source  arrivalTime
attr title  "arrival time, histogram"
bin	-INF	0
bin	96.147	0
bin	96.180333333333	0
bin	96.213666666667	0
bin	96.247	0
bin	96.280333333333	0
bin	96.313666666667	0
bin	96.347	0
bin	96.380333333333	0
bin	96.413666666667	0
bin	96.447	0
bin	96.480333333333	0
bin	96.513666666667	0
bin	96.547	0
bin	96.580333333333	0
bin	96.613666666667	0
bin	96.647	1
bin	96.680333333333	0
bin	96.713666666667	0
bin	96.747	0
bin	96.780333333333	0
bin	96.813666666667	0
bin	96.847	0
bin	96.880333333333	0
bin	96.913666666667	0
bin	96.947	0
bin	96.980333333333	0
bin	97.013666666667	0
bin	97.047	0
bin	97.080333333333	0
bin	97.113666666667	0
bin	97.147	0
statistic RandomGeometricGraph.rgnv[46] 	arrivalPerc:histogram
field count 1
field mean 1
field stddev nan
field sum 1
field sqrsum 1
field min 1
field max 1
attr interpolationmode  none
attr source  count(arrival)
attr title  "arrival perc, histogram"
bin	-INF	0
bin	0	0
bin	1	1
bin	2	0
statistic RandomGeometricGraph.rgnv[47] 	arrivalTime:histogram
field count 1
field mean 160.023
field stddev nan
field sum 160.023
field sqrsum 25607.360529
field min 160.023
field max 160.023
attr interpolationmode  none
attr source  arrivalTime
attr title  "arrival time, histogram"
bin	-INF	0
bin	159.523	0
bin	159.55633333333	0
bin	159.58966666667	0
bin	159.623	0
bin	159.65633333333	0
bin	159.68966666667	0
bin	159.723	0
bin	159.75633333333	0
bin	159.78966666667	0
bin	159.823	0
bin	159.85633333333	0
bin	159.88966666667	0
bin	159.923	0
bin	159.95633333333	0
bin	159.98966666667	0
bin	160.023	1
bin	160.05633333333	0
bin	160.08966666667	0
bin	160.123	0
bin	160.15633333333	0
bin	160.18966666667	0
bin	160.223	0
bin	160.25633333333	0
bin	160.28966666667	0
bin	160.323	0
bin	160.35633333333	0
bin	160.38966666667	0
bin	160.423	0
bin	160.45633333333	0
bin	160.48966666667	0
bin	160.523	0
statistic RandomGeometricGraph.rgnv[47] 	arrivalPerc:histogram
field count 1
field mean 1
field stddev nan
field sum 1
field sqrsum 1
field min 1
field max 1
attr interpolationmode  none
attr source  count(arrival)
attr title  "arrival perc, histogram"
bin	-INF	0
bin	0	0
bin	1	1
bin	2	0
statistic RandomGeometricGraph.rgnv[48] 	arrivalTime:histogram
field count 1
field mean 118.888
field stddev nan
field sum 118.888
field sqrsum 14134.356544
field min 118.888
field max 118.888
attr interpolationmode  none
attr source  arrivalTime
attr title  "arrival time, histogram"
bin	-INF	0
bin	118.388	0
bin	118.42133333333	0
bin	118.45466666667	0
bin	118.488	0
bin	118.52133333333	0
bin	118.55466666667	0
bin	118.588	0
bin	118.62133333333	0
bin	118.65466666667	0
bin	118.688	0
bin	118.72133333333	0
bin	118.75466666667	0
bin	118.788	0
bin	118.82133333333	0
bin	118.85466666667	0
bin	118.888	1
bin	118.92133333333	0
bin	118.95466666667	0
bin	118.988	0
bin	119.02133333333	0
bin	119.05466666667	0
bin	119.088	0
bin	119.12133333333	0
bin	119.15466666667	0
bin	119.188	0
bin	119.22133333333	0
bin	119.25466666667	0
bin	119.288	0
bin	119.32133333333	0
bin	119.35466666667	0
bin	119.388	0
statistic RandomGeometricGraph.rgnv[48] 	arrivalPerc:histogram
field count 1
field mean 1
field stddev nan
field sum 1
field sqrsum 1
field min 1
field max 1
attr interpolationmode  none
attr source  count(arrival)
attr title  "arrival perc, histogram"
bin	-INF	0
bin	0	0
bin	1	1
bin	2	0
statistic RandomGeometricGraph.rgnv[49] 	arrivalTime:histogram
field count 1
field mean 185.571
field stddev nan
field sum 185.571
field sqrsum 34436.596041
field min 185.571
field max 185.571
attr interpolationmode  none
attr source  arrivalTime
attr title  "arrival time, histogram"
bin	-INF	0
bin	185.071	0
bin	185.10433333333	0
bin	185.13766666667	0
bin	185.171	0
bin	185.20433333333	0
bin	185.23766666667	0
bin	185.271	0
bin	185.30433333333	0
bin	185.33766666667	0
bin	185.371	0
bin	185.40433333333	0
bin	185.43766666667	0
bin	185.471	0
bin	185.50433333333	0
bin	185.53766666667	0
bin	185.571	1
bin	185.60433333333	0
bin	185.63766666667	0
bin	185.671	0
bin	185.70433333333	0
bin	185.73766666667	0
bin	185.771	0
bin	185.80433333333	0
bin	185.83766666667	0
bin	185.871	0
bin	185.90433333333	0
bin	185.93766666667	0
bin	185.971	0
bin	186.00433333333	0
bin	186.03766666667	0
bin	186.071	0
statistic RandomGeometricGraph.rgnv[49] 	arrivalPerc:histogram
field count 1
field mean 1
field stddev nan
field sum 1
field sqrsum 1
field min 1
field max 1
attr interpolationmode  none
attr source  count(arrival)
attr title  "arrival perc, histogram"
bin	-INF	0
bin	0	0
bin	1	1
bin	2	0
statistic RandomGeometricGraph.rgnv[50] 	arrivalTime:histogram
field count 1
field mean 192.792
field stddev nan
field sum 192.792
field sqrsum 37168.755264
field min 192.792
field max 192.792
attr interpolationmode  none
attr source  arrivalTime
attr title  "arrival time, histogram"
bin	-INF	0
bin	192.292	0
bin	192.32533333333	0
bin	192.35866666667	0
bin	192.392	0
bin	192.42533333333	0
bin	192.45866666667	0
bin	192.492	0
bin	192.52533333333	0
bin	192.55866666667	0
bin	192.592	0
bin	192.62533333333	0
bin	192.65866666667	0
bin	192.692	0
bin	192.72533333333	0
bin	192.75866666667	0
bin	192.792	1
bin	192.82533333333	0
bin	192.85866666667	0
bin	192.892	0
bin	192.92533333333	0
bin	192.95866666667	0
bin	192.992	0
bin	193.02533333333	0
bin	193.05866666667	0
bin	193.092	0
bin	193.12533333333	0
bin	193.15866666667	0
bin	193.192	0
bin	193.22533333333	0
bin	193.25866666667	0
bin	193.292	0
statistic RandomGeometricGraph.rgnv[50] 	arrivalPerc:histogram
field count 1
field mean 1
field stddev nan
field sum 1
field sqrsum 1
field min 1
field max 1
attr interpolationmode  none
attr source  count(arrival)
attr title  "arrival perc, histogram"
bin	-INF	0
bin	0	0
bin	1	1
bin	2	0
statistic RandomGeometricGraph.rgnv[51] 	arrivalTime:histogram
field count 1
field mean 175.561
field stddev nan
field sum 175.561
field sqrsum 30821.664721
field min 175.561
field max 175.561
attr interpolationmode  none
attr source  arrivalTime
attr title  "arrival time, histogram"
bin	-INF	0
bin	175.061	0
bin	175.09433333333	0
bin	175.12766666667	0
bin	175.161	0
bin	175.19433333333	0
bin	175.22766666667	0
bin	175.261	0
bin	175.29433333333	0
bin	175.32766666667	0
bin	175.361	0
bin	175.39433333333	0
bin	175.42766666667	0
bin	175.461	0
bin	175.49433333333	0
bin	175.52766666667	0
bin	175.561	1
bin	175.59433333333	0
bin	175.62766666667	0
bin	175.661	0
bin	175.69433333333	0
bin	175.72766666667	0
bin	175.761	0
bin	175.79433333333	0
bin	175.82766666667	0
bin	175.861	0
bin	175.89433333333	0
bin	175.92766666667	0
bin	175.961	0
bin	175.99433333333	0
bin	176.02766666667	0
bin	176.061	0
statistic RandomGeometricGraph.rgnv[51] 	arrivalPerc:histogram
field count 1
field mean 1
field stddev nan
field sum 1
field sqrsum 1
field min 1
field max 1
attr interpolationmode  none
attr source  count(arrival)
attr title  "arrival perc, histogram"
bin	-INF	0
bin	0	0
bin	1	1
bin	2	0
statistic RandomGeometricGraph.rgnv[52] 	arrivalTime:histogram
field count 1
field mean 145.561
field stddev nan
field sum 145.561
field sqrsum 21188.004721
field min 145.561
field max 145.561
attr interpolationmode  none
attr source  arrivalTime
attr title  "arrival time, histogram"
bin	-INF	0
bin	145.061	0
bin	145.09433333333	0
bin	145.12766666667	0
bin	145.161	0
bin	145.19433333333	0
bin	145.22766666667	0
bin	145.261	0
bin	145.29433333333	0
bin	145.32766666667	0
bin	145.361	0
bin	145.39433333333	0
bin	145.42766666667	0
bin	145.461	0
bin	145.49433333333	0
bin	145.52766666667	0
bin	145.561	1
bin	145.59433333333	0
bin	145.62766666667	0
bin	145.661	0
bin	145.69433333333	0
bin	145.72766666667	0
bin	145.761	0
bin	145.79433333333	0
bin	145.82766666667	0
bin	145.861	0
bin	145.89433333333	0
bin	145.92766666667	0
bin	145.961	0
bin	145.99433333333	0
bin	146.02766666667	0
bin	146.061	0
statistic RandomGeometricGraph.rgnv[52] 	arrivalPerc:histogram
field count 1
field mean 1
field stddev nan
field sum 1
field sqrsum 1
field min 1
field max 1
attr interpolationmode  none
attr source  count(arrival)
attr title  "arrival perc, histogram"
bin	-INF	0
bin	0	0
bin	1	1
bin	2	0
statistic RandomGeometricGraph.rgnv[53] 	arrivalTime:histogram
field count 1
field mean 98.878
field stddev nan
field sum 98.878
field sqrsum 9776.858884
field min 98.878
field max 98.878
attr interpolationmode  none
attr source  arrivalTime
attr title  "arrival time, histogram"
bin	-INF	0
bin	98.378	0
bin	98.411333333333	0
bin	98.444666666667	0
bin	98.478	0
bin	98.511333333333	0
bin	98.544666666667	0
bin	98.578	0
bin	98.611333333333	0
bin	98.644666666667	0
bin	98.678	0
bin	98.711333333333	0
bin	98.744666666667	0
bin	98.778	0
bin	98.811333333333	0
bin	98.844666666667	0
bin	98.878	1
bin	98.911333333333	0
bin	98.944666666667	0
bin	98.978	0
bin	99.011333333333	0
bin	99.044666666667	0
bin	99.078	0
bin	99.111333333333	0
bin	99.144666666667	0
bin	99.178	0
bin	99.211333333333	0
bin	99.244666666667	0
bin	99.278	0
bin	99.311333333333	0
bin	99.344666666667	0
bin	99.378	0
statistic RandomGeometricGraph.rgnv[53] 	arrivalPerc:histogram
field count 1
field mean 1
field stddev nan
field sum 1
field sqrsum 1
field min 1
field max 1
attr interpolationmode  none
attr source  count(arrival)
attr title  "arrival perc, histogram"
bin	-INF	0
bin	0	0
bin	1	1
bin	2	0
statistic RandomGeometricGraph.rgnv[54] 	arrivalTime:histogram
field count 1
field mean 91.637
field stddev nan
field sum 91.637
field sqrsum 8397.339769
field min 91.637
field max 91.637
attr interpolationmode  none
attr source  arrivalTime
attr title  "arrival time, histogram"
bin	-INF	0
bin	91.137	0
bin	91.170333333333	0
bin	91.203666666667	0
bin	91.237	0
bin	91.270333333333	0
bin	91.303666666667	0
bin	91.337	0
bin	91.370333333333	0
bin	91.403666666667	0
bin	91.437	0
bin	91.470333333333	0
bin	91.503666666667	0
bin	91.537	0
bin	91.570333333333	0
bin	91.603666666667	0
bin	91.637	1
bin	91.670333333333	0
bin	91.703666666667	0
bin	91.737	0
bin	91.770333333333	0
bin	91.803666666667	0
bin	91.837	0
bin	91.870333333333	0
bin	91.903666666667	0
bin	91.937	0
bin	91.970333333333	0
bin	92.003666666667	0
bin	92.037	0
bin	92.070333333333	0
bin	92.103666666667	0
bin	92.137	0
statistic RandomGeometricGraph.rgnv[54] 	arrivalPerc:histogram
field count 1
field mean 1
field stddev nan
field sum 1
field sqrsum 1
field min 1
field max 1
attr interpolationmode  none
attr source  count(arrival)
attr title  "arrival perc, histogram"
bin	-INF	0
bin	0	0
bin	1	1
bin	2	0
statistic RandomGeometricGraph.rgnv[55] 	arrivalTime:histogram
field count 1
field mean 150.561
field stddev nan
field sum 150.561
field sqrsum 22668.614721
field min 150.561
field max 150.561
attr interpolationmode  none
attr source  arrivalTime
attr title  "arrival time, histogram"
bin	-INF	0
bin	150.061	0
bin	150.09433333333	0
bin	150.12766666667	0
bin	150.161	0
bin	150.19433333333	0
bin	150.22766666667	0
bin	150.261	0
bin	150.29433333333	0
bin	150.32766666667	0
bin	150.361	0
bin	150.39433333333	0
bin	150.42766666667	0
bin	150.461	0
bin	150.49433333333	0
bin	150.52766666667	0
bin	150.561	1
bin	150.59433333333	0
bin	150.62766666667	0
bin	150.661	0
bin	150.69433333333	0
bin	150.72766666667	0
bin	150.761	0
bin	150.79433333333	0
bin	150.82766666667	0
bin	150.861	0
bin	150.89433333333	0
bin	150.92766666667	0
bin	150.961	0
bin	150.99433333333	0
bin	151.02766666667	0
bin	151.061	0
statistic RandomGeometricGraph.rgnv[55] 	arrivalPerc:histogram
field count 1
field mean 1
field stddev nan
field sum 1
field sqrsum 1
field min 1
field max 1
attr interpolationmode  none
attr source  count(arrival)
attr title  "arrival perc, histogram"
bin	-INF	0
bin	0	0
bin	1	1
bin	2	0
statistic RandomGeometricGraph.rgnv[56] 	arrivalTime:histogram
field count 1
field mean 182.264
field stddev nan
field sum 182.264
field sqrsum 33220.165696
field min 182.264
field max 182.264
attr interpolationmode  none
attr source  arrivalTime
attr title  "arrival time, histogram"
bin	-INF	0
bin	181.764	0
bin	181.79733333333	0
bin	181.83066666667	0
bin	181.864	0
bin	181.89733333333	0
bin	181.93066666667	0
bin	181.964	0
bin	181.99733333333	0
bin	182.03066666667	0
bin	182.064	0
bin	182.09733333333	0
bin	182.13066666667	0
bin	182.164	0
bin	182.19733333333	0
bin	182.23066666667	0
bin	182.264	1
bin	182.29733333333	0
bin	182.33066666667	0
bin	182.364	0
bin	182.39733333333	0
bin	182.43066666667	0
bin	182.464	0
bin	182.49733333333	0
bin	182.53066666667	0
bin	182.564	0
bin	182.59733333333	0
bin	182.63066666667	0
bin	182.664	0
bin	182.69733333333	0
bin	182.73066666667	0
bin	182.764	0
statistic RandomGeometricGraph.rgnv[56] 	arrivalPerc:histogram
field count 1
field mean 1
field stddev nan
field sum 1
field sqrsum 1
field min 1
field max 1
attr interpolationmode  none
attr source  count(arrival)
attr title  "arrival perc, histogram"
bin	-INF	0
bin	0	0
bin	1	1
bin	2	0
statistic RandomGeometricGraph.rgnv[57] 	arrivalTime:histogram
field count 1
field mean 128.33
field stddev nan
field sum 128.33
field sqrsum 16468.5889
field min 128.33
field max 128.33
attr interpolationmode  none
attr source  arrivalTime
attr title  "arrival time, histogram"
bin	-INF	0
bin	127.83	0
bin	127.86333333333	0
bin	127.89666666667	0
bin	127.93	0
bin	127.96333333333	0
bin	127.99666666667	0
bin	128.03	0
bin	128.06333333333	0
bin	128.09666666667	0
bin	128.13	0
bin	128.16333333333	0
bin	128.19666666667	0
bin	128.23	0
bin	128.26333333333	0
bin	128.29666666667	0
bin	128.33	1
bin	128.36333333333	0
bin	128.39666666667	0
bin	128.43	0
bin	128.46333333333	0
bin	128.49666666667	0
bin	128.53	0
bin	128.56333333333	0
bin	128.59666666667	0
bin	128.63	0
bin	128.66333333333	0
bin	128.69666666667	0
bin	128.73	0
bin	128.76333333333	0
bin	128.79666666667	0
bin	128.83	0
statistic RandomGeometricGraph.rgnv[57] 	arrivalPerc:histogram
field count 1
field mean 1
field stddev nan
field sum 1
field sqrsum 1
field min 1
field max 1
attr interpolationmode  none
attr source  count(arrival)
attr title  "arrival perc, histogram"
bin	-INF	0
bin	0	0
bin	1	1
bin	2	0
statistic RandomGeometricGraph.rgnv[58] 	arrivalTime:histogram
field count 1
field mean 42.703
field stddev nan
field sum 42.703
field sqrsum 1823.546209
field min 42.703
field max 42.703
attr interpolationmode  none
attr source  arrivalTime
attr title  "arrival time, histogram"
bin	-INF	0
bin	42.203	0
bin	42.236333333333	0
bin	42.269666666667	0
bin	42.303	0
bin	42.336333333333	0
bin	42.369666666667	0
bin	42.403	0
bin	42.436333333333	0
bin	42.469666666667	0
bin	42.503	0
bin	42.536333333333	0
bin	42.569666666667	0
bin	42.603	0
bin	42.636333333333	0
bin	42.669666666667	0
bin	42.703	1
bin	42.736333333333	0
bin	42.769666666667	0
bin	42.803	0
bin	42.836333333333	0
bin	42.869666666667	0
bin	42.903	0
bin	42.936333333333	0
bin	42.969666666667	0
bin	43.003	0
bin	43.036333333333	0
bin	43.069666666667	0
bin	43.103	0
bin	43.136333333333	0
bin	43.169666666667	0
bin	43.203	0
statistic RandomGeometricGraph.rgnv[58] 	arrivalPerc:histogram
field count 1
field mean 1
field stddev nan
field sum 1
field sqrsum 1
field min 1
field max 1
attr interpolationmode  none
attr source  count(arrival)
attr title  "arrival perc, histogram"
bin	-INF	0
bin	0	0
bin	1	1
bin	2	0
statistic RandomGeometricGraph.rgnv[59] 	arrivalTime:histogram
field count 1
field mean 123.31
field stddev nan
field sum 123.31
field sqrsum 15205.3561
field min 123.31
field max 123.31
attr interpolationmode  none
attr source  arrivalTime
attr title  "arrival time, histogram"
bin	-INF	0
bin	122.81	0
bin	122.84333333333	0
bin	122.87666666667	0
bin	122.91	0
bin	122.94333333333	0
bin	122.97666666667	0
bin	123.01	0
bin	123.04333333333	0
bin	123.07666666667	0
bin	123.11	0
bin	123.14333333333	0
bin	123.17666666667	0
bin	123.21	0
bin	123.24333333333	0
bin	123.27666666667	0
bin	123.31	1
bin	123.34333333333	0
bin	123.37666666667	0
bin	123.41	0
bin	123.44333333333	0
bin	123.47666666667	0
bin	123.51	0
bin	123.54333333333	0
bin	123.57666666667	0
bin	123.61	0
bin	123.64333333333	0
bin	123.67666666667	0
bin	123.71	0
bin	123.74333333333	0
bin	123.77666666667	0
bin	123.81	0
statistic RandomGeometricGraph.rgnv[59] 	arrivalPerc:histogram
field count 1
field mean 1
field stddev nan
field sum 1
field sqrsum 1
field min 1
field max 1
attr interpolationmode  none
attr source  count(arrival)
attr title  "arrival perc, histogram"
bin	-INF	0
bin	0	0
bin	1	1
bin	2	0
statistic RandomGeometricGraph.rgnv[60] 	arrivalTime:histogram
field count 1
field mean 189.485
field stddev nan
field sum 189.485
field sqrsum 35904.565225
field min 189.485
field max 189.485
attr interpolationmode  none
attr source  arrivalTime
attr title  "arrival time, histogram"
bin	-INF	0
bin	188.985	0
bin	189.01833333333	0
bin	189.05166666667	0
bin	189.085	0
bin	189.11833333333	0
bin	189.15166666667	0
bin	189.185	0
bin	189.21833333333	0
bin	189.25166666667	0
bin	189.285	0
bin	189.31833333333	0
bin	189.35166666667	0
bin	189.385	0
bin	189.41833333333	0
bin	189.45166666667	0
bin	189.485	1
bin	189.51833333333	0
bin	189.55166666667	0
bin	189.585	0
bin	189.61833333333	0
bin	189.65166666667	0
bin	189.685	0
bin	189.71833333333	0
bin	189.75166666667	0
bin	189.785	0
bin	189.81833333333	0
bin	189.85166666667	0
bin	189.885	0
bin	189.91833333333	0
bin	189.95166666667	0
bin	189.985	0
statistic RandomGeometricGraph.rgnv[60] 	arrivalPerc:histogram
field count 1
field mean 1
field stddev nan
field sum 1
field sqrsum 1
field min 1
field max 1
attr interpolationmode  none
attr source  count(arrival)
attr title  "arrival perc, histogram"
bin	-INF	0
bin	0	0
bin	1	1
bin	2	0
statistic RandomGeometricGraph.rgnv[61] 	arrivalTime:histogram
field count 1
field mean 118.878
field stddev nan
field sum 118.878
field sqrsum 14131.978884
field min 118.878
field max 118.878
attr interpolationmode  none
attr source  arrivalTime
attr title  "arrival time, histogram"
bin	-INF	0
bin	118.378	0
bin	118.41133333333	0
bin	118.44466666667	0
bin	118.478	0
bin	118.51133333333	0
bin	118.54466666667	0
bin	118.578	0
bin	118.61133333333	0
bin	118.64466666667	0
bin	118.678	0
bin	118.71133333333	0
bin	118.74466666667	0
bin	118.778	0
bin	118.81133333333	0
bin	118.84466666667	0
bin	118.878	1
bin	118.91133333333	0
bin	118.94466666667	0
bin	118.978	0
bin	119.01133333333	0
bin	119.04466666667	0
bin	119.078	0
bin	119.11133333333	0
bin	119.14466666667	0
bin	119.178	0
bin	119.21133333333	0
bin	119.24466666667	0
bin	119.278	0
bin	119.31133333333	0
bin	119.34466666667	0
bin	119.378	0
statistic RandomGeometricGraph.rgnv[61] 	arrivalPerc:histogram
field count 1
field mean 1
field stddev nan
field sum 1
field sqrsum 1
field min 1
field max 1
attr interpolationmode  none
attr source  count(arrival)
attr title  "arrival perc, histogram"
bin	-INF	0
bin	0	0
bin	1	1
bin	2	0
statistic RandomGeometricGraph.rgnv[62] 	arrivalTime:histogram
field count 1
field mean 175.561
field stddev nan
field sum 175.561
field sqrsum 30821.664721
field min 175.561
field max 175.561
attr interpolationmode  none
attr source  arrivalTime
attr title  "arrival time, histogram"
bin	-INF	0
bin	175.061	0
bin	175.09433333333	0
bin	175.12766666667	0
bin	175.161	0
bin	175.19433333333	0
bin	175.22766666667	0
bin	175.261	0
bin	175.29433333333	0
bin	175.32766666667	0
bin	175.361	0
bin	175.39433333333	0
bin	175.42766666667	0
bin	175.461	0
bin	175.49433333333	0
bin	175.52766666667	0
bin	175.561	1
bin	175.59433333333	0
bin	175.62766666667	0
bin	175.661	0
bin	175.69433333333	0
bin	175.72766666667	0
bin	175.761	0
bin	175.79433333333	0
bin	175.82766666667	0
bin	175.861	0
bin	175.89433333333	0
bin	175.92766666667	0
bin	175.961	0
bin	175.99433333333	0
bin	176.02766666667	0
bin	176.061	0
statistic RandomGeometricGraph.rgnv[62] 	arrivalPerc:histogram
field count 1
field mean 1
field stddev nan
field sum 1
field sqrsum 1
field min 1
field max 1
attr interpolationmode  none
attr source  count(arrival)
attr title  "arrival perc, histogram"
bin	-INF	0
bin	0	0
bin	1	1
bin	2	0
statistic RandomGeometricGraph.rgnv[63] 	arrivalTime:histogram
field count 1
field mean 118.888
field stddev nan
field sum 118.888
field sqrsum 14134.356544
field min 118.888
field max 118.888
attr interpolationmode  none
attr source  arrivalTime
attr title  "arrival time, histogram"
bin	-INF	0
bin	118.388	0
bin	118.42133333333	0
bin	118.45466666667	0
bin	118.488	0
bin	118.52133333333	0
bin	118.55466666667	0
bin	118.588	0
bin	118.62133333333	0
bin	118.65466666667	0
bin	118.688	0
bin	118.72133333333	0
bin	118.75466666667	0
bin	118.788	0
bin	118.82133333333	0
bin	118.85466666667	0
bin	118.888	1
bin	118.92133333333	0
bin	118.95466666667	0
bin	118.988	0
bin	119.02133333333	0
bin	119.05466666667	0
bin	119.088	0
bin	119.12133333333	0
bin	119.15466666667	0
bin	119.188	0
bin	119.22133333333	0
bin	119.25466666667	0
bin	119.288	0
bin	119.32133333333	0
bin	119.35466666667	0
bin	119.388	0
statistic RandomGeometricGraph.rgnv[63] 	arrivalPerc:histogram
field count 1
field mean 1
field stddev nan
field sum 1
field sqrsum 1
field min 1
field max 1
attr interpolationmode  none
attr source  count(arrival)
attr title  "arrival perc, histogram"
bin	-INF	0
bin	0	0
bin	1	1
bin	2	0
statistic RandomGeometricGraph.rgnv[64] 	arrivalTime:histogram
field count 1
field mean 96.647
field stddev nan
field sum 96.647
field sqrsum 9340.642609
field min 96.647
field max 96.647
attr interpolationmode  none
attr source  arrivalTime
attr title  "arrival time, histogram"
bin	-INF	0
bin	96.147	0
bin	96.180333333333	0
bin	96.213666666667	0
bin	96.247	0
bin	96.280333333333	0
bin	96.313666666667	0
bin	96.347	0
bin	96.380333333333	0
bin	96.413666666667	0
bin	96.447	0
bin	96.480333333333	0
bin	96.513666666667	0
bin	96.547	0
bin	96.580333333333	0
bin	96.613666666667	0
bin	96.647	1
bin	96.680333333333	0
bin	96.713666666667	0
bin	96.747	0
bin	96.780333333333	0
bin	96.813666666667	0
bin	96.847	0
bin	96.880333333333	0
bin	96.913666666667	0
bin	96.947	0
bin	96.980333333333	0
bin	97.013666666667	0
bin	97.047	0
bin	97.080333333333	0
bin	97.113666666667	0
bin	97.147	0
statistic RandomGeometricGraph.rgnv[64] 	arrivalPerc:histogram
field count 1
field mean 1
field stddev nan
field sum 1
field sqrsum 1
field min 1
field max 1
attr interpolationmode  none
attr source  count(arrival)
attr title  "arrival perc, histogram"
bin	-INF	0
bin	0	0
bin	1	1
bin	2	0
statistic RandomGeometricGraph.rgnv[65] 	arrivalTime:histogram
field count 1
field mean 116.099
field stddev nan
field sum 116.099
field sqrsum 13478.977801
field min 116.099
field max 116.099
attr interpolationmode  none
attr source  arrivalTime
attr title  "arrival time, histogram"
bin	-INF	0
bin	115.599	0
bin	115.63233333333	0
bin	115.66566666667	0
bin	115.699	0
bin	115.73233333333	0
bin	115.76566666667	0
bin	115.799	0
bin	115.83233333333	0
bin	115.86566666667	0
bin	115.899	0
bin	115.93233333333	0
bin	115.96566666667	0
bin	115.999	0
bin	116.03233333333	0
bin	116.06566666667	0
bin	116.099	1
bin	116.13233333333	0
bin	116.16566666667	0
bin	116.199	0
bin	116.23233333333	0
bin	116.26566666667	0
bin	116.299	0
bin	116.33233333333	0
bin	116.36566666667	0
bin	116.399	0
bin	116.43233333333	0
bin	116.46566666667	0
bin	116.499	0
bin	116.53233333333	0
bin	116.56566666667	0
bin	116.599	0
statistic RandomGeometricGraph.rgnv[65] 	arrivalPerc:histogram
field count 1
field mean 1
field stddev nan
field sum 1
field sqrsum 1
field min 1
field max 1
attr interpolationmode  none
attr source  count(arrival)
attr title  "arrival perc, histogram"
bin	-INF	0
bin	0	0
bin	1	1
bin	2	0
statistic RandomGeometricGraph.rgnv[66] 	arrivalTime:histogram
field count 1
field mean 200.013
field stddev nan
field sum 200.013
field sqrsum 40005.200169
field min 200.013
field max 200.013
attr interpolationmode  none
attr source  arrivalTime
attr title  "arrival time, histogram"
bin	-INF	0
bin	199.513	0
bin	199.54633333333	0
bin	199.57966666667	0
bin	199.613	0
bin	199.64633333333	0
bin	199.67966666667	0
bin	199.713	0
bin	199.74633333333	0
bin	199.77966666667	0
bin	199.813	0
bin	199.84633333333	0
bin	199.87966666667	0
bin	199.913	0
bin	199.94633333333	0
bin	199.97966666667	0
bin	200.013	1
bin	200.04633333333	0
bin	200.07966666667	0
bin	200.113	0
bin	200.14633333333	0
bin	200.17966666667	0
bin	200.213	0
bin	200.24633333333	0
bin	200.27966666667	0
bin	200.313	0
bin	200.34633333333	0
bin	200.37966666667	0
bin	200.413	0
bin	200.44633333333	0
bin	200.47966666667	0
bin	200.513	0
statistic RandomGeometricGraph.rgnv[66] 	arrivalPerc:histogram
field count 1
field mean 1
field stddev nan
field sum 1
[...]
bin	-INF	0
bin	0	0
bin	1	1
bin	2	0
statistic RandomGeometricGraph.rgnv[483] 	arrivalTime:histogram
field count 1
field mean 138.34
field stddev nan
field sum 138.34
field sqrsum 19137.9556
field min 138.34
field max 138.34
attr interpolationmode  none
attr source  arrivalTime
attr title  "arrival time, histogram"
bin	-INF	0
bin	137.84	0
bin	137.87333333333	0
bin	137.90666666667	0
bin	137.94	0
bin	137.97333333333	0
bin	138.00666666667	0
bin	138.04	0
bin	138.07333333333	0
bin	138.10666666667	0
bin	138.14	0
bin	138.17333333333	0
bin	138.20666666667	0
bin	138.24	0
bin	138.27333333333	0
bin	138.30666666667	0
bin	138.34	1
bin	138.37333333333	0
bin	138.40666666667	0
bin	138.44	0
bin	138.47333333333	0
bin	138.50666666667	0
bin	138.54	0
bin	138.57333333333	0
bin	138.60666666667	0
bin	138.64	0
bin	138.67333333333	0
bin	138.70666666667	0
bin	138.74	0
bin	138.77333333333	0
bin	138.80666666667	0
bin	138.84	0
statistic RandomGeometricGraph.rgnv[483] 	arrivalPerc:histogram
field count 1
field mean 1
field stddev nan
field sum 1
field sqrsum 1
field min 1
field max 1
attr interpolationmode  none
attr source  count(arrival)
attr title  "arrival perc, histogram"
bin	-INF	0
bin	0	0
bin	1	1
bin	2	0
statistic RandomGeometricGraph.rgnv[484] 	arrivalTime:histogram
field count 1
field mean 94.426
field stddev nan
field sum 94.426
field sqrsum 8916.269476
field min 94.426
field max 94.426
attr interpolationmode  none
attr source  arrivalTime
attr title  "arrival time, histogram"
bin	-INF	0
bin	93.926	0
bin	93.959333333333	0
bin	93.992666666667	0
bin	94.026	0
bin	94.059333333333	0
bin	94.092666666667	0
bin	94.126	0
bin	94.159333333333	0
bin	94.192666666667	0
bin	94.226	0
bin	94.259333333333	0
bin	94.292666666667	0
bin	94.326	0
bin	94.359333333333	0
bin	94.392666666667	0
bin	94.426	1
bin	94.459333333333	0
bin	94.492666666667	0
bin	94.526	0
bin	94.559333333333	0
bin	94.592666666667	0
bin	94.626	0
bin	94.659333333333	0
bin	94.692666666667	0
bin	94.726	0
bin	94.759333333333	0
bin	94.792666666667	0
bin	94.826	0
bin	94.859333333333	0
bin	94.892666666667	0
bin	94.926	0
statistic RandomGeometricGraph.rgnv[484] 	arrivalPerc:histogram
field count 1
field mean 1
field stddev nan
field sum 1
field sqrsum 1
field min 1
field max 1
attr interpolationmode  none
attr source  count(arrival)
attr title  "arrival perc, histogram"
bin	-INF	0
bin	0	0
bin	1	1
bin	2	0
statistic RandomGeometricGraph.rgnv[485] 	arrivalTime:histogram
field count 1
field mean 126.099
field stddev nan
field sum 126.099
field sqrsum 15900.957801
field min 126.099
field max 126.099
attr interpolationmode  none
attr source  arrivalTime
attr title  "arrival time, histogram"
bin	-INF	0
bin	125.599	0
bin	125.63233333333	0
bin	125.66566666667	0
bin	125.699	0
bin	125.73233333333	0
bin	125.76566666667	0
bin	125.799	0
bin	125.83233333333	0
bin	125.86566666667	0
bin	125.899	0
bin	125.93233333333	0
bin	125.96566666667	0
bin	125.999	0
bin	126.03233333333	0
bin	126.06566666667	0
bin	126.099	1
bin	126.13233333333	0
bin	126.16566666667	0
bin	126.199	0
bin	126.23233333333	0
bin	126.26566666667	0
bin	126.299	0
bin	126.33233333333	0
bin	126.36566666667	0
bin	126.399	0
bin	126.43233333333	0
bin	126.46566666667	0
bin	126.499	0
bin	126.53233333333	0
bin	126.56566666667	0
bin	126.599	0
statistic RandomGeometricGraph.rgnv[485] 	arrivalPerc:histogram
field count 1
field mean 1
field stddev nan
field sum 1
field sqrsum 1
field min 1
field max 1
attr interpolationmode  none
attr source  count(arrival)
attr title  "arrival perc, histogram"
bin	-INF	0
bin	0	0
bin	1	1
bin	2	0
statistic RandomGeometricGraph.rgnv[486] 	arrivalTime:histogram
field count 1
field mean 147.792
field stddev nan
field sum 147.792
field sqrsum 21842.475264
field min 147.792
field max 147.792
attr interpolationmode  none
attr source  arrivalTime
attr title  "arrival time, histogram"
bin	-INF	0
bin	147.292	0
bin	147.32533333333	0
bin	147.35866666667	0
bin	147.392	0
bin	147.42533333333	0
bin	147.45866666667	0
bin	147.492	0
bin	147.52533333333	0
bin	147.55866666667	0
bin	147.592	0
bin	147.62533333333	0
bin	147.65866666667	0
bin	147.692	0
bin	147.72533333333	0
bin	147.75866666667	0
bin	147.792	1
bin	147.82533333333	0
bin	147.85866666667	0
bin	147.892	0
bin	147.92533333333	0
bin	147.95866666667	0
bin	147.992	0
bin	148.02533333333	0
bin	148.05866666667	0
bin	148.092	0
bin	148.12533333333	0
bin	148.15866666667	0
bin	148.192	0
bin	148.22533333333	0
bin	148.25866666667	0
bin	148.292	0
statistic RandomGeometricGraph.rgnv[486] 	arrivalPerc:histogram
field count 1
field mean 1
field stddev nan
field sum 1
field sqrsum 1
field min 1
field max 1
attr interpolationmode  none
attr source  count(arrival)
attr title  "arrival perc, histogram"
bin	-INF	0
bin	0	0
bin	1	1
bin	2	0
statistic RandomGeometricGraph.rgnv[487] 	arrivalTime:histogram
field count 1
field mean 158.888
field stddev nan
field sum 158.888
field sqrsum 25245.396544
field min 158.888
field max 158.888
attr interpolationmode  none
attr source  arrivalTime
attr title  "arrival time, histogram"
bin	-INF	0
bin	158.388	0
bin	158.42133333333	0
bin	158.45466666667	0
bin	158.488	0
bin	158.52133333333	0
bin	158.55466666667	0
bin	158.588	0
bin	158.62133333333	0
bin	158.65466666667	0
bin	158.688	0
bin	158.72133333333	0
bin	158.75466666667	0
bin	158.788	0
bin	158.82133333333	0
bin	158.85466666667	0
bin	158.888	1
bin	158.92133333333	0
bin	158.95466666667	0
bin	158.988	0
bin	159.02133333333	0
bin	159.05466666667	0
bin	159.088	0
bin	159.12133333333	0
bin	159.15466666667	0
bin	159.188	0
bin	159.22133333333	0
bin	159.25466666667	0
bin	159.288	0
bin	159.32133333333	0
bin	159.35466666667	0
bin	159.388	0
statistic RandomGeometricGraph.rgnv[487] 	arrivalPerc:histogram
field count 1
field mean 1
field stddev nan
field sum 1
field sqrsum 1
field min 1
field max 1
attr interpolationmode  none
attr source  count(arrival)
attr title  "arrival perc, histogram"
bin	-INF	0
bin	0	0
bin	1	1
bin	2	0
statistic RandomGeometricGraph.rgnv[488] 	arrivalTime:histogram
field count 1
field mean 177.254
field stddev nan
field sum 177.254
field sqrsum 31418.980516
field min 177.254
field max 177.254
attr interpolationmode  none
attr source  arrivalTime
attr title  "arrival time, histogram"
bin	-INF	0
bin	176.754	0
bin	176.78733333333	0
bin	176.82066666667	0
bin	176.854	0
bin	176.88733333333	0
bin	176.92066666667	0
bin	176.954	0
bin	176.98733333333	0
bin	177.02066666667	0
bin	177.054	0
bin	177.08733333333	0
bin	177.12066666667	0
bin	177.154	0
bin	177.18733333333	0
bin	177.22066666667	0
bin	177.254	1
bin	177.28733333333	0
bin	177.32066666667	0
bin	177.354	0
bin	177.38733333333	0
bin	177.42066666667	0
bin	177.454	0
bin	177.48733333333	0
bin	177.52066666667	0
bin	177.554	0
bin	177.58733333333	0
bin	177.62066666667	0
bin	177.654	0
bin	177.68733333333	0
bin	177.72066666667	0
bin	177.754	0
statistic RandomGeometricGraph.rgnv[488] 	arrivalPerc:histogram
field count 1
field mean 1
field stddev nan
field sum 1
field sqrsum 1
field min 1
field max 1
attr interpolationmode  none
attr source  count(arrival)
attr title  "arrival perc, histogram"
bin	-INF	0
bin	0	0
bin	1	1
bin	2	0
statistic RandomGeometricGraph.rgnv[489] 	arrivalTime:histogram
field count 1
field mean 133.34
field stddev nan
field sum 133.34
field sqrsum 17779.5556
field min 133.34
field max 133.34
attr interpolationmode  none
attr source  arrivalTime
attr title  "arrival time, histogram"
bin	-INF	0
bin	132.84	0
bin	132.87333333333	0
bin	132.90666666667	0
bin	132.94	0
bin	132.97333333333	0
bin	133.00666666667	0
bin	133.04	0
bin	133.07333333333	0
bin	133.10666666667	0
bin	133.14	0
bin	133.17333333333	0
bin	133.20666666667	0
bin	133.24	0
bin	133.27333333333	0
bin	133.30666666667	0
bin	133.34	1
bin	133.37333333333	0
bin	133.40666666667	0
bin	133.44	0
bin	133.47333333333	0
bin	133.50666666667	0
bin	133.54	0
bin	133.57333333333	0
bin	133.60666666667	0
bin	133.64	0
bin	133.67333333333	0
bin	133.70666666667	0
bin	133.74	0
bin	133.77333333333	0
bin	133.80666666667	0
bin	133.84	0
statistic RandomGeometricGraph.rgnv[489] 	arrivalPerc:histogram
field count 1
field mean 1
field stddev nan
field sum 1
field sqrsum 1
field min 1
field max 1
attr interpolationmode  none
attr source  count(arrival)
attr title  "arrival perc, histogram"
bin	-INF	0
bin	0	0
bin	1	1
bin	2	0
statistic RandomGeometricGraph.rgnv[490] 	arrivalTime:histogram
field count 1
field mean 143.34
field stddev nan
field sum 143.34
field sqrsum 20546.3556
field min 143.34
field max 143.34
attr interpolationmode  none
attr source  arrivalTime
attr title  "arrival time, histogram"
bin	-INF	0
bin	142.84	0
bin	142.87333333333	0
bin	142.90666666667	0
bin	142.94	0
bin	142.97333333333	0
bin	143.00666666667	0
bin	143.04	0
bin	143.07333333333	0
bin	143.10666666667	0
bin	143.14	0
bin	143.17333333333	0
bin	143.20666666667	0
bin	143.24	0
bin	143.27333333333	0
bin	143.30666666667	0
bin	143.34	1
bin	143.37333333333	0
bin	143.40666666667	0
bin	143.44	0
bin	143.47333333333	0
bin	143.50666666667	0
bin	143.54	0
bin	143.57333333333	0
bin	143.60666666667	0
bin	143.64	0
bin	143.67333333333	0
bin	143.70666666667	0
bin	143.74	0
bin	143.77333333333	0
bin	143.80666666667	0
bin	143.84	0
statistic RandomGeometricGraph.rgnv[490] 	arrivalPerc:histogram
field count 1
field mean 1
field stddev nan
field sum 1
field sqrsum 1
field min 1
field max 1
attr interpolationmode  none
attr source  count(arrival)
attr title  "arrival perc, histogram"
bin	-INF	0
bin	0	0
bin	1	1
bin	2	0
statistic RandomGeometricGraph.rgnv[491] 	arrivalTime:histogram
field count 1
field mean 180.561
field stddev nan
field sum 180.561
field sqrsum 32602.274721
field min 180.561
field max 180.561
attr interpolationmode  none
attr source  arrivalTime
attr title  "arrival time, histogram"
bin	-INF	0
bin	180.061	0
bin	180.09433333333	0
bin	180.12766666667	0
bin	180.161	0
bin	180.19433333333	0
bin	180.22766666667	0
bin	180.261	0
bin	180.29433333333	0
bin	180.32766666667	0
bin	180.361	0
bin	180.39433333333	0
bin	180.42766666667	0
bin	180.461	0
bin	180.49433333333	0
bin	180.52766666667	0
bin	180.561	1
bin	180.59433333333	0
bin	180.62766666667	0
bin	180.661	0
bin	180.69433333333	0
bin	180.72766666667	0
bin	180.761	0
bin	180.79433333333	0
bin	180.82766666667	0
bin	180.861	0
bin	180.89433333333	0
bin	180.92766666667	0
bin	180.961	0
bin	180.99433333333	0
bin	181.02766666667	0
bin	181.061	0
statistic RandomGeometricGraph.rgnv[491] 	arrivalPerc:histogram
field count 1
field mean 1
field stddev nan
field sum 1
field sqrsum 1
field min 1
field max 1
attr interpolationmode  none
attr source  count(arrival)
attr title  "arrival perc, histogram"
bin	-INF	0
bin	0	0
bin	1	1
bin	2	0
statistic RandomGeometricGraph.rgnv[492] 	arrivalTime:histogram
field count 1
field mean 160.013
field stddev nan
field sum 160.013
field sqrsum 25604.160169
field min 160.013
field max 160.013
attr interpolationmode  none
attr source  arrivalTime
attr title  "arrival time, histogram"
bin	-INF	0
bin	159.513	0
bin	159.54633333333	0
bin	159.57966666667	0
bin	159.613	0
bin	159.64633333333	0
bin	159.67966666667	0
bin	159.713	0
bin	159.74633333333	0
bin	159.77966666667	0
bin	159.813	0
bin	159.84633333333	0
bin	159.87966666667	0
bin	159.913	0
bin	159.94633333333	0
bin	159.97966666667	0
bin	160.013	1
bin	160.04633333333	0
bin	160.07966666667	0
bin	160.113	0
bin	160.14633333333	0
bin	160.17966666667	0
bin	160.213	0
bin	160.24633333333	0
bin	160.27966666667	0
bin	160.313	0
bin	160.34633333333	0
bin	160.37966666667	0
bin	160.413	0
bin	160.44633333333	0
bin	160.47966666667	0
bin	160.513	0
statistic RandomGeometricGraph.rgnv[492] 	arrivalPerc:histogram
field count 1
field mean 1
field stddev nan
field sum 1
field sqrsum 1
field min 1
field max 1
attr interpolationmode  none
attr source  count(arrival)
attr title  "arrival perc, histogram"
bin	-INF	0
bin	0	0
bin	1	1
bin	2	0
statistic RandomGeometricGraph.rgnv[493] 	arrivalTime:histogram
field count 1
field mean 121.099
field stddev nan
field sum 121.099
field sqrsum 14664.967801
field min 121.099
field max 121.099
attr interpolationmode  none
attr source  arrivalTime
attr title  "arrival time, histogram"
bin	-INF	0
bin	120.599	0
bin	120.63233333333	0
bin	120.66566666667	0
bin	120.699	0
bin	120.73233333333	0
bin	120.76566666667	0
bin	120.799	0
bin	120.83233333333	0
bin	120.86566666667	0
bin	120.899	0
bin	120.93233333333	0
bin	120.96566666667	0
bin	120.999	0
bin	121.03233333333	0
bin	121.06566666667	0
bin	121.099	1
bin	121.13233333333	0
bin	121.16566666667	0
bin	121.199	0
bin	121.23233333333	0
bin	121.26566666667	0
bin	121.299	0
bin	121.33233333333	0
bin	121.36566666667	0
bin	121.399	0
bin	121.43233333333	0
bin	121.46566666667	0
bin	121.499	0
bin	121.53233333333	0
bin	121.56566666667	0
bin	121.599	0
statistic RandomGeometricGraph.rgnv[493] 	arrivalPerc:histogram
field count 1
field mean 1
field stddev nan
field sum 1
field sqrsum 1
field min 1
field max 1
attr interpolationmode  none
attr source  count(arrival)
attr title  "arrival perc, histogram"
bin	-INF	0
bin	0	0
bin	1	1
bin	2	0
statistic RandomGeometricGraph.rgnv[494] 	arrivalTime:histogram
field count 1
field mean 84.416
field stddev nan
field sum 84.416
field sqrsum 7126.061056
field min 84.416
field max 84.416
attr interpolationmode  none
attr source  arrivalTime
attr title  "arrival time, histogram"
bin	-INF	0
bin	83.916	0
bin	83.949333333333	0
bin	83.982666666667	0
bin	84.016	0
bin	84.049333333333	0
bin	84.082666666667	0
bin	84.116	0
bin	84.149333333333	0
bin	84.182666666667	0
bin	84.216	0
bin	84.249333333333	0
bin	84.282666666667	0
bin	84.316	0
bin	84.349333333333	0
bin	84.382666666667	0
bin	84.416	1
bin	84.449333333333	0
bin	84.482666666667	0
bin	84.516	0
bin	84.549333333333	0
bin	84.582666666667	0
bin	84.616	0
bin	84.649333333333	0
bin	84.682666666667	0
bin	84.716	0
bin	84.749333333333	0
bin	84.782666666667	0
bin	84.816	0
bin	84.849333333333	0
bin	84.882666666667	0
bin	84.916	0
statistic RandomGeometricGraph.rgnv[494] 	arrivalPerc:histogram
field count 1
field mean 1
field stddev nan
field sum 1
field sqrsum 1
field min 1
field max 1
attr interpolationmode  none
attr source  count(arrival)
attr title  "arrival perc, histogram"
bin	-INF	0
bin	0	0
bin	1	1
bin	2	0
statistic RandomGeometricGraph.rgnv[495] 	arrivalTime:histogram
field count 1
field mean 101.647
field stddev nan
field sum 101.647
field sqrsum 10332.112609
field min 101.647
field max 101.647
attr interpolationmode  none
attr source  arrivalTime
attr title  "arrival time, histogram"
bin	-INF	0
bin	101.147	0
bin	101.18033333333	0
bin	101.21366666667	0
bin	101.247	0
bin	101.28033333333	0
bin	101.31366666667	0
bin	101.347	0
bin	101.38033333333	0
bin	101.41366666667	0
bin	101.447	0
bin	101.48033333333	0
bin	101.51366666667	0
bin	101.547	0
bin	101.58033333333	0
bin	101.61366666667	0
bin	101.647	1
bin	101.68033333333	0
bin	101.71366666667	0
bin	101.747	0
bin	101.78033333333	0
bin	101.81366666667	0
bin	101.847	0
bin	101.88033333333	0
bin	101.91366666667	0
bin	101.947	0
bin	101.98033333333	0
bin	102.01366666667	0
bin	102.047	0
bin	102.08033333333	0
bin	102.11366666667	0
bin	102.147	0
statistic RandomGeometricGraph.rgnv[495] 	arrivalPerc:histogram
field count 1
field mean 1
field stddev nan
field sum 1
field sqrsum 1
field min 1
field max 1
attr interpolationmode  none
attr source  count(arrival)
attr title  "arrival perc, histogram"
bin	-INF	0
bin	0	0
bin	1	1
bin	2	0
statistic RandomGeometricGraph.rgnv[496] 	arrivalTime:histogram
field count 1
field mean 108.868
field stddev nan
field sum 108.868
field sqrsum 11852.241424
field min 108.868
field max 108.868
attr interpolationmode  none
attr source  arrivalTime
attr title  "arrival time, histogram"
bin	-INF	0
bin	108.368	0
bin	108.40133333333	0
bin	108.43466666667	0
bin	108.468	0
bin	108.50133333333	0
bin	108.53466666667	0
bin	108.568	0
bin	108.60133333333	0
bin	108.63466666667	0
bin	108.668	0
bin	108.70133333333	0
bin	108.73466666667	0
bin	108.768	0
bin	108.80133333333	0
bin	108.83466666667	0
bin	108.868	1
bin	108.90133333333	0
bin	108.93466666667	0
bin	108.968	0
bin	109.00133333333	0
bin	109.03466666667	0
bin	109.068	0
bin	109.10133333333	0
bin	109.13466666667	0
bin	109.168	0
bin	109.20133333333	0
bin	109.23466666667	0
bin	109.268	0
bin	109.30133333333	0
bin	109.33466666667	0
bin	109.368	0
statistic RandomGeometricGraph.rgnv[496] 	arrivalPerc:histogram
field count 1
field mean 1
field stddev nan
field sum 1
field sqrsum 1
field min 1
field max 1
attr interpolationmode  none
attr source  count(arrival)
attr title  "arrival perc, histogram"
bin	-INF	0
bin	0	0
bin	1	1
bin	2	0
statistic RandomGeometricGraph.rgnv[497] 	arrivalTime:histogram
field count 1
field mean 103.868
field stddev nan
field sum 103.868
field sqrsum 10788.561424
field min 103.868
field max 103.868
attr interpolationmode  none
attr source  arrivalTime
attr title  "arrival time, histogram"
bin	-INF	0
bin	103.368	0
bin	103.40133333333	0
bin	103.43466666667	0
bin	103.468	0
bin	103.50133333333	0
bin	103.53466666667	0
bin	103.568	0
bin	103.60133333333	0
bin	103.63466666667	0
bin	103.668	0
bin	103.70133333333	0
bin	103.73466666667	0
bin	103.768	0
bin	103.80133333333	0
bin	103.83466666667	0
bin	103.868	1
bin	103.90133333333	0
bin	103.93466666667	0
bin	103.968	0
bin	104.00133333333	0
bin	104.03466666667	0
bin	104.068	0
bin	104.10133333333	0
bin	104.13466666667	0
bin	104.168	0
bin	104.20133333333	0
bin	104.23466666667	0
bin	104.268	0
bin	104.30133333333	0
bin	104.33466666667	0
bin	104.368	0
statistic RandomGeometricGraph.rgnv[497] 	arrivalPerc:histogram
field count 1
field mean 1
field stddev nan
field sum 1
field sqrsum 1
field min 1
field max 1
attr interpolationmode  none
attr source  count(arrival)
attr title  "arrival perc, histogram"
bin	-INF	0
bin	0	0
bin	1	1
bin	2	0
statistic RandomGeometricGraph.rgnv[498] 	arrivalTime:histogram
field count 1
field mean 138.33
field stddev nan
field sum 138.33
field sqrsum 19135.1889
field min 138.33
field max 138.33
attr interpolationmode  none
attr source  arrivalTime
attr title  "arrival time, histogram"
bin	-INF	0
bin	137.83	0
bin	137.86333333333	0
bin	137.89666666667	0
bin	137.93	0
bin	137.96333333333	0
bin	137.99666666667	0
bin	138.03	0
bin	138.06333333333	0
bin	138.09666666667	0
bin	138.13	0
bin	138.16333333333	0
bin	138.19666666667	0
bin	138.23	0
bin	138.26333333333	0
bin	138.29666666667	0
bin	138.33	1
bin	138.36333333333	0
bin	138.39666666667	0
bin	138.43	0
bin	138.46333333333	0
bin	138.49666666667	0
bin	138.53	0
bin	138.56333333333	0
bin	138.59666666667	0
bin	138.63	0
bin	138.66333333333	0
bin	138.69666666667	0
bin	138.73	0
bin	138.76333333333	0
bin	138.79666666667	0
bin	138.83	0
statistic RandomGeometricGraph.rgnv[498] 	arrivalPerc:histogram
field count 1
field mean 1
field stddev nan
field sum 1
field sqrsum 1
field min 1
field max 1
attr interpolationmode  none
attr source  count(arrival)
attr title  "arrival perc, histogram"
bin	-INF	0
bin	0	0
bin	1	1
bin	2	0
statistic RandomGeometricGraph.rgnv[499] 	arrivalTime:histogram
field count 1
field mean 183.34
field stddev nan
field sum 183.34
field sqrsum 33613.5556
field min 183.34
field max 183.34
attr interpolationmode  none
attr source  arrivalTime
attr title  "arrival time, histogram"
bin	-INF	0
bin	182.84	0
bin	182.87333333333	0
bin	182.90666666667	0
bin	182.94	0
bin	182.97333333333	0
bin	183.00666666667	0
bin	183.04	0
bin	183.07333333333	0
bin	183.10666666667	0
bin	183.14	0
bin	183.17333333333	0
bin	183.20666666667	0
bin	183.24	0
bin	183.27333333333	0
bin	183.30666666667	0
bin	183.34	1
bin	183.37333333333	0
bin	183.40666666667	0
bin	183.44	0
bin	183.47333333333	0
bin	183.50666666667	0
bin	183.54	0
bin	183.57333333333	0
bin	183.60666666667	0
bin	183.64	0
bin	183.67333333333	0
bin	183.70666666667	0
bin	183.74	0
bin	183.77333333333	0
bin	183.80666666667	0
bin	183.84	0
statistic RandomGeometricGraph.rgnv[499] 	arrivalPerc:histogram
field count 1
field mean 1
field stddev nan
field sum 1
field sqrsum 1
field min 1
field max 1
attr interpolationmode  none
attr source  count(arrival)
attr title  "arrival perc, histogram"
bin	-INF	0
bin	0	0
bin	1	1
bin	2	0
