version 2
run rgg100-3-20170110-16:27:41-2444
attr configname rgg100
attr datetime 20170110-16:27:41
attr experiment rgg100
attr inifile iniFile/D001/omnetpp_50D001.ini
attr iterationvars ""
attr iterationvars2 $repetition=3
attr measurement ""
attr network blegossipprj.net.randomgeometricgraph.RandomGeometricGraph
attr processid 2444
attr repetition 3
attr replication #3
attr resultdir ../../results/D001/r50D001
attr runnumber 3
attr seedset 3
param RandomGeometricGraph.netSize 100
param RandomGeometricGraph.radius 50
param RandomGeometricGraph.rgnv[*].areaLength 70
param RandomGeometricGraph.rgnv[*].areaWidth 70

statistic RandomGeometricGraph.sc 	arrivalPercentage
field count 100
field mean 1
field stddev 0
field sum 100
field sqrsum 100
field min 1
field max 1
attr type  int
bin	-INF	0
bin	0	0
bin	1	100
bin	2	0
statistic RandomGeometricGraph.sc 	arrivalTime
field count 100
field mean 143.66857
field stddev 81.80631510597
field sum 14366.857
field sqrsum 2726600.846515
field min 0
field max 315.561
bin	-INF	0
bin	-157.7805	0
bin	-136.7431	0
bin	-115.7057	0
bin	-94.6683	0
bin	-73.6309	0
bin	-52.5935	0
bin	-31.5561	0
bin	-10.5187	1
bin	10.5187	3
bin	31.5561	6
bin	52.5935	14
bin	73.6309	11
bin	94.6683	12
bin	115.7057	9
bin	136.7431	7
bin	157.7805	4
bin	178.8179	7
bin	199.8553	4
bin	220.8927	6
bin	241.9301	3
bin	262.9675	6
bin	284.0049	4
bin	305.0423	3
bin	326.0797	0
bin	347.1171	0
bin	368.1545	0
bin	389.1919	0
bin	410.2293	0
bin	431.2667	0
bin	452.3041	0
bin	473.3415	0
statistic RandomGeometricGraph.rgnv[0] 	arrivalTime:histogram
field count 1
field mean 77.175
field stddev nan
field sum 77.175
field sqrsum 5955.980625
field min 77.175
field max 77.175
attr interpolationmode  none
attr source  arrivalTime
attr title  "arrival time, histogram"
bin	-INF	0
bin	76.675	0
bin	76.708333333333	0
bin	76.741666666667	0
bin	76.775	0
bin	76.808333333333	0
bin	76.841666666667	0
bin	76.875	0
bin	76.908333333333	0
bin	76.941666666667	0
bin	76.975	0
bin	77.008333333333	0
bin	77.041666666667	0
bin	77.075	0
bin	77.108333333333	0
bin	77.141666666667	0
bin	77.175	1
bin	77.208333333333	0
bin	77.241666666667	0
bin	77.275	0
bin	77.308333333333	0
bin	77.341666666667	0
bin	77.375	0
bin	77.408333333333	0
bin	77.441666666667	0
bin	77.475	0
bin	77.508333333333	0
bin	77.541666666667	0
bin	77.575	0
bin	77.608333333333	0
bin	77.641666666667	0
bin	77.675	0
statistic RandomGeometricGraph.rgnv[0] 	arrivalPerc:histogram
field count 1
field mean 1
field stddev nan
field sum 1
field sqrsum 1
field min 1
field max 1
attr interpolationmode  none
attr source  count(arrival)
attr title  "arrival perc, histogram"
bin	-INF	0
bin	0	0
bin	1	1
bin	2	0
statistic RandomGeometricGraph.rgnv[1] 	arrivalTime:histogram
field count 1
field mean 156.647
field stddev nan
field sum 156.647
field sqrsum 24538.282609
field min 156.647
field max 156.647
attr interpolationmode  none
attr source  arrivalTime
attr title  "arrival time, histogram"
bin	-INF	0
bin	156.147	0
bin	156.18033333333	0
bin	156.21366666667	0
bin	156.247	0
bin	156.28033333333	0
bin	156.31366666667	0
bin	156.347	0
bin	156.38033333333	0
bin	156.41366666667	0
bin	156.447	0
bin	156.48033333333	0
bin	156.51366666667	0
bin	156.547	0
bin	156.58033333333	0
bin	156.61366666667	0
bin	156.647	1
bin	156.68033333333	0
bin	156.71366666667	0
bin	156.747	0
bin	156.78033333333	0
bin	156.81366666667	0
bin	156.847	0
bin	156.88033333333	0
bin	156.91366666667	0
bin	156.947	0
bin	156.98033333333	0
bin	157.01366666667	0
bin	157.047	0
bin	157.08033333333	0
bin	157.11366666667	0
bin	157.147	0
statistic RandomGeometricGraph.rgnv[1] 	arrivalPerc:histogram
field count 1
field mean 1
field stddev nan
field sum 1
field sqrsum 1
field min 1
field max 1
attr interpolationmode  none
attr source  count(arrival)
attr title  "arrival perc, histogram"
bin	-INF	0
bin	0	0
bin	1	1
bin	2	0
statistic RandomGeometricGraph.rgnv[2] 	arrivalTime:histogram
field count 1
field mean 305.551
field stddev nan
field sum 305.551
field sqrsum 93361.413601
field min 305.551
field max 305.551
attr interpolationmode  none
attr source  arrivalTime
attr title  "arrival time, histogram"
bin	-INF	0
bin	305.051	0
bin	305.08433333333	0
bin	305.11766666667	0
bin	305.151	0
bin	305.18433333333	0
bin	305.21766666667	0
bin	305.251	0
bin	305.28433333333	0
bin	305.31766666667	0
bin	305.351	0
bin	305.38433333333	0
bin	305.41766666667	0
bin	305.451	0
bin	305.48433333333	0
bin	305.51766666667	0
bin	305.551	1
bin	305.58433333333	0
bin	305.61766666667	0
bin	305.651	0
bin	305.68433333333	0
bin	305.71766666667	0
bin	305.751	0
bin	305.78433333333	0
bin	305.81766666667	0
bin	305.851	0
bin	305.88433333333	0
bin	305.91766666667	0
bin	305.951	0
bin	305.98433333333	0
bin	306.01766666667	0
bin	306.051	0
statistic RandomGeometricGraph.rgnv[2] 	arrivalPerc:histogram
field count 1
field mean 1
field stddev nan
field sum 1
field sqrsum 1
field min 1
field max 1
attr interpolationmode  none
attr source  count(arrival)
attr title  "arrival perc, histogram"
bin	-INF	0
bin	0	0
bin	1	1
bin	2	0
statistic RandomGeometricGraph.rgnv[3] 	arrivalTime:histogram
field count 1
field mean 94.396
field stddev nan
field sum 94.396
field sqrsum 8910.604816
field min 94.396
field max 94.396
attr interpolationmode  none
attr source  arrivalTime
attr title  "arrival time, histogram"
bin	-INF	0
bin	93.896	0
bin	93.929333333333	0
bin	93.962666666667	0
bin	93.996	0
bin	94.029333333333	0
bin	94.062666666667	0
bin	94.096	0
bin	94.129333333333	0
bin	94.162666666667	0
bin	94.196	0
bin	94.229333333333	0
bin	94.262666666667	0
bin	94.296	0
bin	94.329333333333	0
bin	94.362666666667	0
bin	94.396	1
bin	94.429333333333	0
bin	94.462666666667	0
bin	94.496	0
bin	94.529333333333	0
bin	94.562666666667	0
bin	94.596	0
bin	94.629333333333	0
bin	94.662666666667	0
bin	94.696	0
bin	94.729333333333	0
bin	94.762666666667	0
bin	94.796	0
bin	94.829333333333	0
bin	94.862666666667	0
bin	94.896	0
statistic RandomGeometricGraph.rgnv[3] 	arrivalPerc:histogram
field count 1
field mean 1
field stddev nan
field sum 1
field sqrsum 1
field min 1
field max 1
attr interpolationmode  none
attr source  count(arrival)
attr title  "arrival perc, histogram"
bin	-INF	0
bin	0	0
bin	1	1
bin	2	0
statistic RandomGeometricGraph.rgnv[4] 	arrivalTime:histogram
field count 1
field mean 82.185
field stddev nan
field sum 82.185
field sqrsum 6754.374225
field min 82.185
field max 82.185
attr interpolationmode  none
attr source  arrivalTime
attr title  "arrival time, histogram"
bin	-INF	0
bin	81.685	0
bin	81.718333333333	0
bin	81.751666666667	0
bin	81.785	0
bin	81.818333333333	0
bin	81.851666666667	0
bin	81.885	0
bin	81.918333333333	0
bin	81.951666666667	0
bin	81.985	0
bin	82.018333333333	0
bin	82.051666666667	0
bin	82.085	0
bin	82.118333333333	0
bin	82.151666666667	0
bin	82.185	1
bin	82.218333333333	0
bin	82.251666666667	0
bin	82.285	0
bin	82.318333333333	0
bin	82.351666666667	0
bin	82.385	0
bin	82.418333333333	0
bin	82.451666666667	0
bin	82.485	0
bin	82.518333333333	0
bin	82.551666666667	0
bin	82.585	0
bin	82.618333333333	0
bin	82.651666666667	0
bin	82.685	0
statistic RandomGeometricGraph.rgnv[4] 	arrivalPerc:histogram
field count 1
field mean 1
field stddev nan
field sum 1
field sqrsum 1
field min 1
field max 1
attr interpolationmode  none
attr source  count(arrival)
attr title  "arrival perc, histogram"
bin	-INF	0
bin	0	0
bin	1	1
bin	2	0
statistic RandomGeometricGraph.rgnv[5] 	arrivalTime:histogram
field count 1
field mean 136.627
field stddev nan
field sum 136.627
field sqrsum 18666.937129
field min 136.627
field max 136.627
attr interpolationmode  none
attr source  arrivalTime
attr title  "arrival time, histogram"
bin	-INF	0
bin	136.127	0
bin	136.16033333333	0
bin	136.19366666667	0
bin	136.227	0
bin	136.26033333333	0
bin	136.29366666667	0
bin	136.327	0
bin	136.36033333333	0
bin	136.39366666667	0
bin	136.427	0
bin	136.46033333333	0
bin	136.49366666667	0
bin	136.527	0
bin	136.56033333333	0
bin	136.59366666667	0
bin	136.627	1
bin	136.66033333333	0
bin	136.69366666667	0
bin	136.727	0
bin	136.76033333333	0
bin	136.79366666667	0
bin	136.827	0
bin	136.86033333333	0
bin	136.89366666667	0
bin	136.927	0
bin	136.96033333333	0
bin	136.99366666667	0
bin	137.027	0
bin	137.06033333333	0
bin	137.09366666667	0
bin	137.127	0
statistic RandomGeometricGraph.rgnv[5] 	arrivalPerc:histogram
field count 1
field mean 1
field stddev nan
field sum 1
field sqrsum 1
field min 1
field max 1
attr interpolationmode  none
attr source  count(arrival)
attr title  "arrival perc, histogram"
bin	-INF	0
bin	0	0
bin	1	1
bin	2	0
statistic RandomGeometricGraph.rgnv[6] 	arrivalTime:histogram
field count 1
field mean 283.34
field stddev nan
field sum 283.34
field sqrsum 80281.5556
field min 283.34
field max 283.34
attr interpolationmode  none
attr source  arrivalTime
attr title  "arrival time, histogram"
bin	-INF	0
bin	282.84	0
bin	282.87333333333	0
bin	282.90666666667	0
bin	282.94	0
bin	282.97333333333	0
bin	283.00666666667	0
bin	283.04	0
bin	283.07333333333	0
bin	283.10666666667	0
bin	283.14	0
bin	283.17333333333	0
bin	283.20666666667	0
bin	283.24	0
bin	283.27333333333	0
bin	283.30666666667	0
bin	283.34	1
bin	283.37333333333	0
bin	283.40666666667	0
bin	283.44	0
bin	283.47333333333	0
bin	283.50666666667	0
bin	283.54	0
bin	283.57333333333	0
bin	283.60666666667	0
bin	283.64	0
bin	283.67333333333	0
bin	283.70666666667	0
bin	283.74	0
bin	283.77333333333	0
bin	283.80666666667	0
bin	283.84	0
statistic RandomGeometricGraph.rgnv[6] 	arrivalPerc:histogram
field count 1
field mean 1
field stddev nan
field sum 1
field sqrsum 1
field min 1
field max 1
attr interpolationmode  none
attr source  count(arrival)
attr title  "arrival perc, histogram"
bin	-INF	0
bin	0	0
bin	1	1
bin	2	0
statistic RandomGeometricGraph.rgnv[7] 	arrivalTime:histogram
field count 1
field mean 67.165
field stddev nan
field sum 67.165
field sqrsum 4511.137225
field min 67.165
field max 67.165
attr interpolationmode  none
attr source  arrivalTime
attr title  "arrival time, histogram"
bin	-INF	0
bin	66.665	0
bin	66.698333333333	0
bin	66.731666666667	0
bin	66.765	0
bin	66.798333333333	0
bin	66.831666666667	0
bin	66.865	0
bin	66.898333333333	0
bin	66.931666666667	0
bin	66.965	0
bin	66.998333333333	0
bin	67.031666666667	0
bin	67.065	0
bin	67.098333333333	0
bin	67.131666666667	0
bin	67.165	1
bin	67.198333333333	0
bin	67.231666666667	0
bin	67.265	0
bin	67.298333333333	0
bin	67.331666666667	0
bin	67.365	0
bin	67.398333333333	0
bin	67.431666666667	0
bin	67.465	0
bin	67.498333333333	0
bin	67.531666666667	0
bin	67.565	0
bin	67.598333333333	0
bin	67.631666666667	0
bin	67.665	0
statistic RandomGeometricGraph.rgnv[7] 	arrivalPerc:histogram
field count 1
field mean 1
field stddev nan
field sum 1
field sqrsum 1
field min 1
field max 1
attr interpolationmode  none
attr source  count(arrival)
attr title  "arrival perc, histogram"
bin	-INF	0
bin	0	0
bin	1	1
bin	2	0
statistic RandomGeometricGraph.rgnv[8] 	arrivalTime:histogram
field count 1
field mean 42.703
field stddev nan
field sum 42.703
field sqrsum 1823.546209
field min 42.703
field max 42.703
attr interpolationmode  none
attr source  arrivalTime
attr title  "arrival time, histogram"
bin	-INF	0
bin	42.203	0
bin	42.236333333333	0
bin	42.269666666667	0
bin	42.303	0
bin	42.336333333333	0
bin	42.369666666667	0
bin	42.403	0
bin	42.436333333333	0
bin	42.469666666667	0
bin	42.503	0
bin	42.536333333333	0
bin	42.569666666667	0
bin	42.603	0
bin	42.636333333333	0
bin	42.669666666667	0
bin	42.703	1
bin	42.736333333333	0
bin	42.769666666667	0
bin	42.803	0
bin	42.836333333333	0
bin	42.869666666667	0
bin	42.903	0
bin	42.936333333333	0
bin	42.969666666667	0
bin	43.003	0
bin	43.036333333333	0
bin	43.069666666667	0
bin	43.103	0
bin	43.136333333333	0
bin	43.169666666667	0
bin	43.203	0
statistic RandomGeometricGraph.rgnv[8] 	arrivalPerc:histogram
field count 1
field mean 1
field stddev nan
field sum 1
field sqrsum 1
field min 1
field max 1
attr interpolationmode  none
attr source  count(arrival)
attr title  "arrival perc, histogram"
bin	-INF	0
bin	0	0
bin	1	1
bin	2	0
statistic RandomGeometricGraph.rgnv[9] 	arrivalTime:histogram
field count 1
field mean 72.175
field stddev nan
field sum 72.175
field sqrsum 5209.230625
field min 72.175
field max 72.175
attr interpolationmode  none
attr source  arrivalTime
attr title  "arrival time, histogram"
bin	-INF	0
bin	71.675	0
bin	71.708333333333	0
bin	71.741666666667	0
bin	71.775	0
bin	71.808333333333	0
bin	71.841666666667	0
bin	71.875	0
bin	71.908333333333	0
bin	71.941666666667	0
bin	71.975	0
bin	72.008333333333	0
bin	72.041666666667	0
bin	72.075	0
bin	72.108333333333	0
bin	72.141666666667	0
bin	72.175	1
bin	72.208333333333	0
bin	72.241666666667	0
bin	72.275	0
bin	72.308333333333	0
bin	72.341666666667	0
bin	72.375	0
bin	72.408333333333	0
bin	72.441666666667	0
bin	72.475	0
bin	72.508333333333	0
bin	72.541666666667	0
bin	72.575	0
bin	72.608333333333	0
bin	72.641666666667	0
bin	72.675	0
statistic RandomGeometricGraph.rgnv[9] 	arrivalPerc:histogram
field count 1
field mean 1
field stddev nan
field sum 1
field sqrsum 1
field min 1
field max 1
attr interpolationmode  none
attr source  count(arrival)
attr title  "arrival perc, histogram"
bin	-INF	0
bin	0	0
bin	1	1
bin	2	0
statistic RandomGeometricGraph.rgnv[10] 	arrivalTime:histogram
field count 1
field mean 129.426
field stddev nan
field sum 129.426
field sqrsum 16751.089476
field min 129.426
field max 129.426
attr interpolationmode  none
attr source  arrivalTime
attr title  "arrival time, histogram"
bin	-INF	0
bin	128.926	0
bin	128.95933333333	0
bin	128.99266666667	0
bin	129.026	0
bin	129.05933333333	0
bin	129.09266666667	0
bin	129.126	0
bin	129.15933333333	0
bin	129.19266666667	0
bin	129.226	0
bin	129.25933333333	0
bin	129.29266666667	0
bin	129.326	0
bin	129.35933333333	0
bin	129.39266666667	0
bin	129.426	1
bin	129.45933333333	0
bin	129.49266666667	0
bin	129.526	0
bin	129.55933333333	0
bin	129.59266666667	0
bin	129.626	0
bin	129.65933333333	0
bin	129.69266666667	0
bin	129.726	0
bin	129.75933333333	0
bin	129.79266666667	0
bin	129.826	0
bin	129.85933333333	0
bin	129.89266666667	0
bin	129.926	0
statistic RandomGeometricGraph.rgnv[10] 	arrivalPerc:histogram
field count 1
field mean 1
field stddev nan
field sum 1
field sqrsum 1
field min 1
field max 1
attr interpolationmode  none
attr source  count(arrival)
attr title  "arrival perc, histogram"
bin	-INF	0
bin	0	0
bin	1	1
bin	2	0
statistic RandomGeometricGraph.rgnv[11] 	arrivalTime:histogram
field count 1
field mean 136.627
field stddev nan
field sum 136.627
field sqrsum 18666.937129
field min 136.627
field max 136.627
attr interpolationmode  none
attr source  arrivalTime
attr title  "arrival time, histogram"
bin	-INF	0
bin	136.127	0
bin	136.16033333333	0
bin	136.19366666667	0
bin	136.227	0
bin	136.26033333333	0
bin	136.29366666667	0
bin	136.327	0
bin	136.36033333333	0
bin	136.39366666667	0
bin	136.427	0
bin	136.46033333333	0
bin	136.49366666667	0
bin	136.527	0
bin	136.56033333333	0
bin	136.59366666667	0
bin	136.627	1
bin	136.66033333333	0
bin	136.69366666667	0
bin	136.727	0
bin	136.76033333333	0
bin	136.79366666667	0
bin	136.827	0
bin	136.86033333333	0
bin	136.89366666667	0
bin	136.927	0
bin	136.96033333333	0
bin	136.99366666667	0
bin	137.027	0
bin	137.06033333333	0
bin	137.09366666667	0
bin	137.127	0
statistic RandomGeometricGraph.rgnv[11] 	arrivalPerc:histogram
field count 1
field mean 1
field stddev nan
field sum 1
field sqrsum 1
field min 1
field max 1
attr interpolationmode  none
attr source  count(arrival)
attr title  "arrival perc, histogram"
bin	-INF	0
bin	0	0
bin	1	1
bin	2	0
statistic RandomGeometricGraph.rgnv[12] 	arrivalTime:histogram
field count 1
field mean 293.35
field stddev nan
field sum 293.35
field sqrsum 86054.2225
field min 293.35
field max 293.35
attr interpolationmode  none
attr source  arrivalTime
attr title  "arrival time, histogram"
bin	-INF	0
bin	292.85	0
bin	292.88333333333	0
bin	292.91666666667	0
bin	292.95	0
bin	292.98333333333	0
bin	293.01666666667	0
bin	293.05	0
bin	293.08333333333	0
bin	293.11666666667	0
bin	293.15	0
bin	293.18333333333	0
bin	293.21666666667	0
bin	293.25	0
bin	293.28333333333	0
bin	293.31666666667	0
bin	293.35	1
bin	293.38333333333	0
bin	293.41666666667	0
bin	293.45	0
bin	293.48333333333	0
bin	293.51666666667	0
bin	293.55	0
bin	293.58333333333	0
bin	293.61666666667	0
bin	293.65	0
bin	293.68333333333	0
bin	293.71666666667	0
bin	293.75	0
bin	293.78333333333	0
bin	293.81666666667	0
bin	293.85	0
statistic RandomGeometricGraph.rgnv[12] 	arrivalPerc:histogram
field count 1
field mean 1
field stddev nan
field sum 1
field sqrsum 1
field min 1
field max 1
attr interpolationmode  none
attr source  count(arrival)
attr title  "arrival perc, histogram"
bin	-INF	0
bin	0	0
bin	1	1
bin	2	0
statistic RandomGeometricGraph.rgnv[13] 	arrivalTime:histogram
field count 1
field mean 42.703
field stddev nan
field sum 42.703
field sqrsum 1823.546209
field min 42.703
field max 42.703
attr interpolationmode  none
attr source  arrivalTime
attr title  "arrival time, histogram"
bin	-INF	0
bin	42.203	0
bin	42.236333333333	0
bin	42.269666666667	0
bin	42.303	0
bin	42.336333333333	0
bin	42.369666666667	0
bin	42.403	0
bin	42.436333333333	0
bin	42.469666666667	0
bin	42.503	0
bin	42.536333333333	0
bin	42.569666666667	0
bin	42.603	0
bin	42.636333333333	0
bin	42.669666666667	0
bin	42.703	1
bin	42.736333333333	0
bin	42.769666666667	0
bin	42.803	0
bin	42.836333333333	0
bin	42.869666666667	0
bin	42.903	0
bin	42.936333333333	0
bin	42.969666666667	0
bin	43.003	0
bin	43.036333333333	0
bin	43.069666666667	0
bin	43.103	0
bin	43.136333333333	0
bin	43.169666666667	0
bin	43.203	0
statistic RandomGeometricGraph.rgnv[13] 	arrivalPerc:histogram
field count 1
field mean 1
field stddev nan
field sum 1
field sqrsum 1
field min 1
field max 1
attr interpolationmode  none
attr source  count(arrival)
attr title  "arrival perc, histogram"
bin	-INF	0
bin	0	0
bin	1	1
bin	2	0
statistic RandomGeometricGraph.rgnv[14] 	arrivalTime:histogram
field count 1
field mean 221.089
field stddev nan
field sum 221.089
field sqrsum 48880.345921
field min 221.089
field max 221.089
attr interpolationmode  none
attr source  arrivalTime
attr title  "arrival time, histogram"
bin	-INF	0
bin	220.589	0
bin	220.62233333333	0
bin	220.65566666667	0
bin	220.689	0
bin	220.72233333333	0
bin	220.75566666667	0
bin	220.789	0
bin	220.82233333333	0
bin	220.85566666667	0
bin	220.889	0
bin	220.92233333333	0
bin	220.95566666667	0
bin	220.989	0
bin	221.02233333333	0
bin	221.05566666667	0
bin	221.089	1
bin	221.12233333333	0
bin	221.15566666667	0
bin	221.189	0
bin	221.22233333333	0
bin	221.25566666667	0
bin	221.289	0
bin	221.32233333333	0
bin	221.35566666667	0
bin	221.389	0
bin	221.42233333333	0
bin	221.45566666667	0
bin	221.489	0
bin	221.52233333333	0
bin	221.55566666667	0
bin	221.589	0
statistic RandomGeometricGraph.rgnv[14] 	arrivalPerc:histogram
field count 1
field mean 1
field stddev nan
field sum 1
field sqrsum 1
field min 1
field max 1
attr interpolationmode  none
attr source  count(arrival)
attr title  "arrival perc, histogram"
bin	-INF	0
bin	0	0
bin	1	1
bin	2	0
statistic RandomGeometricGraph.rgnv[15] 	arrivalTime:histogram
field count 1
field mean 141.637
field stddev nan
field sum 141.637
field sqrsum 20061.039769
field min 141.637
field max 141.637
attr interpolationmode  none
attr source  arrivalTime
attr title  "arrival time, histogram"
bin	-INF	0
bin	141.137	0
bin	141.17033333333	0
bin	141.20366666667	0
bin	141.237	0
bin	141.27033333333	0
bin	141.30366666667	0
bin	141.337	0
bin	141.37033333333	0
bin	141.40366666667	0
bin	141.437	0
bin	141.47033333333	0
bin	141.50366666667	0
bin	141.537	0
bin	141.57033333333	0
bin	141.60366666667	0
bin	141.637	1
bin	141.67033333333	0
bin	141.70366666667	0
bin	141.737	0
bin	141.77033333333	0
bin	141.80366666667	0
bin	141.837	0
bin	141.87033333333	0
bin	141.90366666667	0
bin	141.937	0
bin	141.97033333333	0
bin	142.00366666667	0
bin	142.037	0
bin	142.07033333333	0
bin	142.10366666667	0
bin	142.137	0
statistic RandomGeometricGraph.rgnv[15] 	arrivalPerc:histogram
field count 1
field mean 1
field stddev nan
field sum 1
field sqrsum 1
field min 1
field max 1
attr interpolationmode  none
attr source  count(arrival)
attr title  "arrival perc, histogram"
bin	-INF	0
bin	0	0
bin	1	1
bin	2	0
statistic RandomGeometricGraph.rgnv[16] 	arrivalTime:histogram
field count 1
field mean 54.934
field stddev nan
field sum 54.934
field sqrsum 3017.744356
field min 54.934
field max 54.934
attr interpolationmode  none
attr source  arrivalTime
attr title  "arrival time, histogram"
bin	-INF	0
bin	54.434	0
bin	54.467333333333	0
bin	54.500666666667	0
bin	54.534	0
bin	54.567333333333	0
bin	54.600666666667	0
bin	54.634	0
bin	54.667333333333	0
bin	54.700666666667	0
bin	54.734	0
bin	54.767333333333	0
bin	54.800666666667	0
bin	54.834	0
bin	54.867333333333	0
bin	54.900666666667	0
bin	54.934	1
bin	54.967333333333	0
bin	55.000666666667	0
bin	55.034	0
bin	55.067333333333	0
bin	55.100666666667	0
bin	55.134	0
bin	55.167333333333	0
bin	55.200666666667	0
bin	55.234	0
bin	55.267333333333	0
bin	55.300666666667	0
bin	55.334	0
bin	55.367333333333	0
bin	55.400666666667	0
bin	55.434	0
statistic RandomGeometricGraph.rgnv[16] 	arrivalPerc:histogram
field count 1
field mean 1
field stddev nan
field sum 1
field sqrsum 1
field min 1
field max 1
attr interpolationmode  none
attr source  count(arrival)
attr title  "arrival perc, histogram"
bin	-INF	0
bin	0	0
bin	1	1
bin	2	0
statistic RandomGeometricGraph.rgnv[17] 	arrivalTime:histogram
field count 1
field mean 198.878
field stddev nan
field sum 198.878
field sqrsum 39552.458884
field min 198.878
field max 198.878
attr interpolationmode  none
attr source  arrivalTime
attr title  "arrival time, histogram"
bin	-INF	0
bin	198.378	0
bin	198.41133333333	0
bin	198.44466666667	0
bin	198.478	0
bin	198.51133333333	0
bin	198.54466666667	0
bin	198.578	0
bin	198.61133333333	0
bin	198.64466666667	0
bin	198.678	0
bin	198.71133333333	0
bin	198.74466666667	0
bin	198.778	0
bin	198.81133333333	0
bin	198.84466666667	0
bin	198.878	1
bin	198.91133333333	0
bin	198.94466666667	0
bin	198.978	0
bin	199.01133333333	0
bin	199.04466666667	0
bin	199.078	0
bin	199.11133333333	0
bin	199.14466666667	0
bin	199.178	0
bin	199.21133333333	0
bin	199.24466666667	0
bin	199.278	0
bin	199.31133333333	0
bin	199.34466666667	0
bin	199.378	0
statistic RandomGeometricGraph.rgnv[17] 	arrivalPerc:histogram
field count 1
field mean 1
field stddev nan
field sum 1
field sqrsum 1
field min 1
field max 1
attr interpolationmode  none
attr source  count(arrival)
attr title  "arrival perc, histogram"
bin	-INF	0
bin	0	0
bin	1	1
bin	2	0
statistic RandomGeometricGraph.rgnv[18] 	arrivalTime:histogram
field count 1
field mean 315.561
field stddev nan
field sum 315.561
field sqrsum 99578.744721
field min 315.561
field max 315.561
attr interpolationmode  none
attr source  arrivalTime
attr title  "arrival time, histogram"
bin	-INF	0
bin	315.061	0
bin	315.09433333333	0
bin	315.12766666667	0
bin	315.161	0
bin	315.19433333333	0
bin	315.22766666667	0
bin	315.261	0
bin	315.29433333333	0
bin	315.32766666667	0
bin	315.361	0
bin	315.39433333333	0
bin	315.42766666667	0
bin	315.461	0
bin	315.49433333333	0
bin	315.52766666667	0
bin	315.561	1
bin	315.59433333333	0
bin	315.62766666667	0
bin	315.661	0
bin	315.69433333333	0
bin	315.72766666667	0
bin	315.761	0
bin	315.79433333333	0
bin	315.82766666667	0
bin	315.861	0
bin	315.89433333333	0
bin	315.92766666667	0
bin	315.961	0
bin	315.99433333333	0
bin	316.02766666667	0
bin	316.061	0
statistic RandomGeometricGraph.rgnv[18] 	arrivalPerc:histogram
field count 1
field mean 1
field stddev nan
field sum 1
field sqrsum 1
field min 1
field max 1
attr interpolationmode  none
attr source  count(arrival)
attr title  "arrival perc, histogram"
bin	-INF	0
bin	0	0
bin	1	1
bin	2	0
statistic RandomGeometricGraph.rgnv[19] 	arrivalTime:histogram
field count 1
field mean 268.33
field stddev nan
field sum 268.33
field sqrsum 72000.9889
field min 268.33
field max 268.33
attr interpolationmode  none
attr source  arrivalTime
attr title  "arrival time, histogram"
bin	-INF	0
bin	267.83	0
bin	267.86333333333	0
bin	267.89666666667	0
bin	267.93	0
bin	267.96333333333	0
bin	267.99666666667	0
bin	268.03	0
bin	268.06333333333	0
bin	268.09666666667	0
bin	268.13	0
bin	268.16333333333	0
bin	268.19666666667	0
bin	268.23	0
bin	268.26333333333	0
bin	268.29666666667	0
bin	268.33	1
bin	268.36333333333	0
bin	268.39666666667	0
bin	268.43	0
bin	268.46333333333	0
bin	268.49666666667	0
bin	268.53	0
bin	268.56333333333	0
bin	268.59666666667	0
bin	268.63	0
bin	268.66333333333	0
bin	268.69666666667	0
bin	268.73	0
bin	268.76333333333	0
bin	268.79666666667	0
bin	268.83	0
statistic RandomGeometricGraph.rgnv[19] 	arrivalPerc:histogram
field count 1
field mean 1
field stddev nan
field sum 1
field sqrsum 1
field min 1
field max 1
attr interpolationmode  none
attr source  count(arrival)
attr title  "arrival perc, histogram"
bin	-INF	0
bin	0	0
bin	1	1
bin	2	0
statistic RandomGeometricGraph.rgnv[20] 	arrivalTime:histogram
field count 1
field mean 226.099
field stddev nan
field sum 226.099
field sqrsum 51120.757801
field min 226.099
field max 226.099
attr interpolationmode  none
attr source  arrivalTime
attr title  "arrival time, histogram"
bin	-INF	0
bin	225.599	0
bin	225.63233333333	0
bin	225.66566666667	0
bin	225.699	0
bin	225.73233333333	0
bin	225.76566666667	0
bin	225.799	0
bin	225.83233333333	0
bin	225.86566666667	0
bin	225.899	0
bin	225.93233333333	0
bin	225.96566666667	0
bin	225.999	0
bin	226.03233333333	0
bin	226.06566666667	0
bin	226.099	1
bin	226.13233333333	0
bin	226.16566666667	0
bin	226.199	0
bin	226.23233333333	0
bin	226.26566666667	0
bin	226.299	0
bin	226.33233333333	0
bin	226.36566666667	0
bin	226.399	0
bin	226.43233333333	0
bin	226.46566666667	0
bin	226.499	0
bin	226.53233333333	0
bin	226.56566666667	0
bin	226.599	0
statistic RandomGeometricGraph.rgnv[20] 	arrivalPerc:histogram
field count 1
field mean 1
field stddev nan
field sum 1
field sqrsum 1
field min 1
field max 1
attr interpolationmode  none
attr source  count(arrival)
attr title  "arrival perc, histogram"
bin	-INF	0
bin	0	0
bin	1	1
bin	2	0
statistic RandomGeometricGraph.rgnv[21] 	arrivalTime:histogram
field count 1
field mean 77.175
field stddev nan
field sum 77.175
field sqrsum 5955.980625
field min 77.175
field max 77.175
attr interpolationmode  none
attr source  arrivalTime
attr title  "arrival time, histogram"
bin	-INF	0
bin	76.675	0
bin	76.708333333333	0
bin	76.741666666667	0
bin	76.775	0
bin	76.808333333333	0
bin	76.841666666667	0
bin	76.875	0
bin	76.908333333333	0
bin	76.941666666667	0
bin	76.975	0
bin	77.008333333333	0
bin	77.041666666667	0
bin	77.075	0
bin	77.108333333333	0
bin	77.141666666667	0
bin	77.175	1
bin	77.208333333333	0
bin	77.241666666667	0
bin	77.275	0
bin	77.308333333333	0
bin	77.341666666667	0
bin	77.375	0
bin	77.408333333333	0
bin	77.441666666667	0
bin	77.475	0
bin	77.508333333333	0
bin	77.541666666667	0
bin	77.575	0
bin	77.608333333333	0
bin	77.641666666667	0
bin	77.675	0
statistic RandomGeometricGraph.rgnv[21] 	arrivalPerc:histogram
field count 1
field mean 1
field stddev nan
field sum 1
field sqrsum 1
field min 1
field max 1
attr interpolationmode  none
attr source  count(arrival)
attr title  "arrival perc, histogram"
bin	-INF	0
bin	0	0
bin	1	1
bin	2	0
statistic RandomGeometricGraph.rgnv[22] 	arrivalTime:histogram
field count 1
field mean 263.32
field stddev nan
field sum 263.32
field sqrsum 69337.4224
field min 263.32
field max 263.32
attr interpolationmode  none
attr source  arrivalTime
attr title  "arrival time, histogram"
bin	-INF	0
bin	262.82	0
bin	262.85333333333	0
bin	262.88666666667	0
bin	262.92	0
bin	262.95333333333	0
bin	262.98666666667	0
bin	263.02	0
bin	263.05333333333	0
bin	263.08666666667	0
bin	263.12	0
bin	263.15333333333	0
bin	263.18666666667	0
bin	263.22	0
bin	263.25333333333	0
bin	263.28666666667	0
bin	263.32	1
bin	263.35333333333	0
bin	263.38666666667	0
bin	263.42	0
bin	263.45333333333	0
bin	263.48666666667	0
bin	263.52	0
bin	263.55333333333	0
bin	263.58666666667	0
bin	263.62	0
bin	263.65333333333	0
bin	263.68666666667	0
bin	263.72	0
bin	263.75333333333	0
bin	263.78666666667	0
bin	263.82	0
statistic RandomGeometricGraph.rgnv[22] 	arrivalPerc:histogram
field count 1
field mean 1
field stddev nan
field sum 1
field sqrsum 1
field min 1
field max 1
attr interpolationmode  none
attr source  count(arrival)
attr title  "arrival perc, histogram"
bin	-INF	0
bin	0	0
bin	1	1
bin	2	0
statistic RandomGeometricGraph.rgnv[23] 	arrivalTime:histogram
field count 1
field mean 188.868
field stddev nan
field sum 188.868
field sqrsum 35671.121424
field min 188.868
field max 188.868
attr interpolationmode  none
attr source  arrivalTime
attr title  "arrival time, histogram"
bin	-INF	0
bin	188.368	0
bin	188.40133333333	0
bin	188.43466666667	0
bin	188.468	0
bin	188.50133333333	0
bin	188.53466666667	0
bin	188.568	0
bin	188.60133333333	0
bin	188.63466666667	0
bin	188.668	0
bin	188.70133333333	0
bin	188.73466666667	0
bin	188.768	0
bin	188.80133333333	0
bin	188.83466666667	0
bin	188.868	1
bin	188.90133333333	0
bin	188.93466666667	0
bin	188.968	0
bin	189.00133333333	0
bin	189.03466666667	0
bin	189.068	0
bin	189.10133333333	0
bin	189.13466666667	0
bin	189.168	0
bin	189.20133333333	0
bin	189.23466666667	0
bin	189.268	0
bin	189.30133333333	0
bin	189.33466666667	0
bin	189.368	0
statistic RandomGeometricGraph.rgnv[23] 	arrivalPerc:histogram
field count 1
field mean 1
field stddev nan
field sum 1
field sqrsum 1
field min 1
field max 1
attr interpolationmode  none
attr source  count(arrival)
attr title  "arrival perc, histogram"
bin	-INF	0
bin	0	0
bin	1	1
bin	2	0
statistic RandomGeometricGraph.rgnv[24] 	arrivalTime:histogram
field count 1
field mean 0
field stddev nan
field sum 0
field sqrsum 0
field min 0
field max 0
attr interpolationmode  none
attr source  arrivalTime
attr title  "arrival time, histogram"
bin	-INF	0
bin	-0.5	0
bin	-0.46666666666667	0
bin	-0.43333333333333	0
bin	-0.4	0
bin	-0.36666666666667	0
bin	-0.33333333333333	0
bin	-0.3	0
bin	-0.26666666666667	0
bin	-0.23333333333333	0
bin	-0.2	0
bin	-0.16666666666667	0
bin	-0.13333333333333	0
bin	-0.1	0
bin	-0.066666666666667	0
bin	-0.033333333333333	0
bin	0	1
bin	0.033333333333333	0
bin	0.066666666666667	0
bin	0.1	0
bin	0.13333333333333	0
bin	0.16666666666667	0
bin	0.2	0
bin	0.23333333333333	0
bin	0.26666666666667	0
bin	0.3	0
bin	0.33333333333333	0
bin	0.36666666666667	0
bin	0.4	0
bin	0.43333333333333	0
bin	0.46666666666667	0
bin	0.5	0
statistic RandomGeometricGraph.rgnv[24] 	arrivalPerc:histogram
field count 1
field mean 1
field stddev nan
field sum 1
field sqrsum 1
field min 1
field max 1
attr interpolationmode  none
attr source  count(arrival)
attr title  "arrival perc, histogram"
bin	-INF	0
bin	0	0
bin	1	1
bin	2	0
statistic RandomGeometricGraph.rgnv[25] 	arrivalTime:histogram
field count 1
field mean 236.109
field stddev nan
field sum 236.109
field sqrsum 55747.459881
field min 236.109
field max 236.109
attr interpolationmode  none
attr source  arrivalTime
attr title  "arrival time, histogram"
bin	-INF	0
bin	235.609	0
bin	235.64233333333	0
bin	235.67566666667	0
bin	235.709	0
bin	235.74233333333	0
bin	235.77566666667	0
bin	235.809	0
bin	235.84233333333	0
bin	235.87566666667	0
bin	235.909	0
bin	235.94233333333	0
bin	235.97566666667	0
bin	236.009	0
bin	236.04233333333	0
bin	236.07566666667	0
bin	236.109	1
bin	236.14233333333	0
bin	236.17566666667	0
bin	236.209	0
bin	236.24233333333	0
bin	236.27566666667	0
bin	236.309	0
bin	236.34233333333	0
bin	236.37566666667	0
bin	236.409	0
bin	236.44233333333	0
bin	236.47566666667	0
bin	236.509	0
bin	236.54233333333	0
bin	236.57566666667	0
bin	236.609	0
statistic RandomGeometricGraph.rgnv[25] 	arrivalPerc:histogram
field count 1
field mean 1
field stddev nan
field sum 1
field sqrsum 1
field min 1
field max 1
attr interpolationmode  none
attr source  count(arrival)
attr title  "arrival perc, histogram"
bin	-INF	0
bin	0	0
bin	1	1
bin	2	0
statistic RandomGeometricGraph.rgnv[26] 	arrivalTime:histogram
field count 1
field mean 151.637
field stddev nan
field sum 151.637
field sqrsum 22993.779769
field min 151.637
field max 151.637
attr interpolationmode  none
attr source  arrivalTime
attr title  "arrival time, histogram"
bin	-INF	0
bin	151.137	0
bin	151.17033333333	0
bin	151.20366666667	0
bin	151.237	0
bin	151.27033333333	0
bin	151.30366666667	0
bin	151.337	0
bin	151.37033333333	0
bin	151.40366666667	0
bin	151.437	0
bin	151.47033333333	0
bin	151.50366666667	0
bin	151.537	0
bin	151.57033333333	0
bin	151.60366666667	0
bin	151.637	1
bin	151.67033333333	0
bin	151.70366666667	0
bin	151.737	0
bin	151.77033333333	0
bin	151.80366666667	0
bin	151.837	0
bin	151.87033333333	0
bin	151.90366666667	0
bin	151.937	0
bin	151.97033333333	0
bin	152.00366666667	0
bin	152.037	0
bin	152.07033333333	0
bin	152.10366666667	0
bin	152.137	0
statistic RandomGeometricGraph.rgnv[26] 	arrivalPerc:histogram
field count 1
field mean 1
field stddev nan
field sum 1
field sqrsum 1
field min 1
field max 1
attr interpolationmode  none
attr source  count(arrival)
attr title  "arrival perc, histogram"
bin	-INF	0
bin	0	0
bin	1	1
bin	2	0
statistic RandomGeometricGraph.rgnv[27] 	arrivalTime:histogram
field count 1
field mean 246.109
field stddev nan
field sum 246.109
field sqrsum 60569.639881
field min 246.109
field max 246.109
attr interpolationmode  none
attr source  arrivalTime
attr title  "arrival time, histogram"
bin	-INF	0
bin	245.609	0
bin	245.64233333333	0
bin	245.67566666667	0
bin	245.709	0
bin	245.74233333333	0
bin	245.77566666667	0
bin	245.809	0
bin	245.84233333333	0
bin	245.87566666667	0
bin	245.909	0
bin	245.94233333333	0
bin	245.97566666667	0
bin	246.009	0
bin	246.04233333333	0
bin	246.07566666667	0
bin	246.109	1
bin	246.14233333333	0
bin	246.17566666667	0
bin	246.209	0
bin	246.24233333333	0
bin	246.27566666667	0
bin	246.309	0
bin	246.34233333333	0
bin	246.37566666667	0
bin	246.409	0
bin	246.44233333333	0
bin	246.47566666667	0
bin	246.509	0
bin	246.54233333333	0
bin	246.57566666667	0
bin	246.609	0
statistic RandomGeometricGraph.rgnv[27] 	arrivalPerc:histogram
field count 1
field mean 1
field stddev nan
field sum 1
field sqrsum 1
field min 1
field max 1
attr interpolationmode  none
attr source  count(arrival)
attr title  "arrival perc, histogram"
bin	-INF	0
bin	0	0
bin	1	1
bin	2	0
statistic RandomGeometricGraph.rgnv[28] 	arrivalTime:histogram
field count 1
field mean 67.175
field stddev nan
field sum 67.175
field sqrsum 4512.480625
field min 67.175
field max 67.175
attr interpolationmode  none
attr source  arrivalTime
attr title  "arrival time, histogram"
bin	-INF	0
bin	66.675	0
bin	66.708333333333	0
bin	66.741666666667	0
bin	66.775	0
bin	66.808333333333	0
bin	66.841666666667	0
bin	66.875	0
bin	66.908333333333	0
bin	66.941666666667	0
bin	66.975	0
bin	67.008333333333	0
bin	67.041666666667	0
bin	67.075	0
bin	67.108333333333	0
bin	67.141666666667	0
bin	67.175	1
bin	67.208333333333	0
bin	67.241666666667	0
bin	67.275	0
bin	67.308333333333	0
bin	67.341666666667	0
bin	67.375	0
bin	67.408333333333	0
bin	67.441666666667	0
bin	67.475	0
bin	67.508333333333	0
bin	67.541666666667	0
bin	67.575	0
bin	67.608333333333	0
bin	67.641666666667	0
bin	67.675	0
statistic RandomGeometricGraph.rgnv[28] 	arrivalPerc:histogram
field count 1
field mean 1
field stddev nan
field sum 1
field sqrsum 1
field min 1
field max 1
attr interpolationmode  none
attr source  count(arrival)
attr title  "arrival perc, histogram"
bin	-INF	0
bin	0	0
bin	1	1
bin	2	0
statistic RandomGeometricGraph.rgnv[29] 	arrivalTime:histogram
field count 1
field mean 25.472
field stddev nan
field sum 25.472
field sqrsum 648.822784
field min 25.472
field max 25.472
attr interpolationmode  none
attr source  arrivalTime
attr title  "arrival time, histogram"
bin	-INF	0
bin	24.972	0
bin	25.005333333333	0
bin	25.038666666667	0
bin	25.072	0
bin	25.105333333333	0
bin	25.138666666667	0
bin	25.172	0
bin	25.205333333333	0
bin	25.238666666667	0
bin	25.272	0
bin	25.305333333333	0
bin	25.338666666667	0
bin	25.372	0
bin	25.405333333333	0
bin	25.438666666667	0
bin	25.472	1
bin	25.505333333333	0
bin	25.538666666667	0
bin	25.572	0
bin	25.605333333333	0
bin	25.638666666667	0
bin	25.672	0
bin	25.705333333333	0
bin	25.738666666667	0
bin	25.772	0
bin	25.805333333333	0
bin	25.838666666667	0
bin	25.872	0
bin	25.905333333333	0
bin	25.938666666667	0
bin	25.972	0
statistic RandomGeometricGraph.rgnv[29] 	arrivalPerc:histogram
field count 1
field mean 1
field stddev nan
field sum 1
field sqrsum 1
field min 1
field max 1
attr interpolationmode  none
attr source  count(arrival)
attr title  "arrival perc, histogram"
bin	-INF	0
bin	0	0
bin	1	1
bin	2	0
statistic RandomGeometricGraph.rgnv[30] 	arrivalTime:histogram
field count 1
field mean 72.165
field stddev nan
field sum 72.165
field sqrsum 5207.787225
field min 72.165
field max 72.165
attr interpolationmode  none
attr source  arrivalTime
attr title  "arrival time, histogram"
bin	-INF	0
bin	71.665	0
bin	71.698333333333	0
bin	71.731666666667	0
bin	71.765	0
bin	71.798333333333	0
bin	71.831666666667	0
bin	71.865	0
bin	71.898333333333	0
bin	71.931666666667	0
bin	71.965	0
bin	71.998333333333	0
bin	72.031666666667	0
bin	72.065	0
bin	72.098333333333	0
bin	72.131666666667	0
bin	72.165	1
bin	72.198333333333	0
bin	72.231666666667	0
bin	72.265	0
bin	72.298333333333	0
bin	72.331666666667	0
bin	72.365	0
bin	72.398333333333	0
bin	72.431666666667	0
bin	72.465	0
bin	72.498333333333	0
bin	72.531666666667	0
bin	72.565	0
bin	72.598333333333	0
bin	72.631666666667	0
bin	72.665	0
statistic RandomGeometricGraph.rgnv[30] 	arrivalPerc:histogram
field count 1
field mean 1
field stddev nan
field sum 1
field sqrsum 1
field min 1
field max 1
attr interpolationmode  none
attr source  count(arrival)
attr title  "arrival perc, histogram"
bin	-INF	0
bin	0	0
bin	1	1
bin	2	0
statistic RandomGeometricGraph.rgnv[31] 	arrivalTime:histogram
field count 1
field mean 99.406
field stddev nan
field sum 99.406
field sqrsum 9881.552836
field min 99.406
field max 99.406
attr interpolationmode  none
attr source  arrivalTime
attr title  "arrival time, histogram"
bin	-INF	0
bin	98.906	0
bin	98.939333333333	0
bin	98.972666666667	0
bin	99.006	0
bin	99.039333333333	0
bin	99.072666666667	0
bin	99.106	0
bin	99.139333333333	0
bin	99.172666666667	0
bin	99.206	0
bin	99.239333333333	0
bin	99.272666666667	0
bin	99.306	0
bin	99.339333333333	0
bin	99.372666666667	0
bin	99.406	1
bin	99.439333333333	0
bin	99.472666666667	0
bin	99.506	0
bin	99.539333333333	0
bin	99.572666666667	0
bin	99.606	0
bin	99.639333333333	0
bin	99.672666666667	0
bin	99.706	0
bin	99.739333333333	0
bin	99.772666666667	0
bin	99.806	0
bin	99.839333333333	0
bin	99.872666666667	0
bin	99.906	0
statistic RandomGeometricGraph.rgnv[31] 	arrivalPerc:histogram
field count 1
field mean 1
field stddev nan
field sum 1
field sqrsum 1
field min 1
field max 1
attr interpolationmode  none
attr source  count(arrival)
attr title  "arrival perc, histogram"
bin	-INF	0
bin	0	0
bin	1	1
bin	2	0
statistic RandomGeometricGraph.rgnv[32] 	arrivalTime:histogram
field count 1
field mean 251.119
field stddev nan
field sum 251.119
field sqrsum 63060.752161
field min 251.119
field max 251.119
attr interpolationmode  none
attr source  arrivalTime
attr title  "arrival time, histogram"
bin	-INF	0
bin	250.619	0
bin	250.65233333333	0
bin	250.68566666667	0
bin	250.719	0
bin	250.75233333333	0
bin	250.78566666667	0
bin	250.819	0
bin	250.85233333333	0
bin	250.88566666667	0
bin	250.919	0
bin	250.95233333333	0
bin	250.98566666667	0
bin	251.019	0
bin	251.05233333333	0
bin	251.08566666667	0
bin	251.119	1
bin	251.15233333333	0
bin	251.18566666667	0
bin	251.219	0
bin	251.25233333333	0
bin	251.28566666667	0
bin	251.319	0
bin	251.35233333333	0
bin	251.38566666667	0
bin	251.419	0
bin	251.45233333333	0
bin	251.48566666667	0
bin	251.519	0
bin	251.55233333333	0
bin	251.58566666667	0
bin	251.619	0
statistic RandomGeometricGraph.rgnv[32] 	arrivalPerc:histogram
field count 1
field mean 1
field stddev nan
field sum 1
field sqrsum 1
field min 1
field max 1
attr interpolationmode  none
attr source  count(arrival)
attr title  "arrival perc, histogram"
bin	-INF	0
bin	0	0
bin	1	1
bin	2	0
statistic RandomGeometricGraph.rgnv[33] 	arrivalTime:histogram
field count 1
field mean 25.462
field stddev nan
field sum 25.462
field sqrsum 648.313444
field min 25.462
field max 25.462
attr interpolationmode  none
attr source  arrivalTime
attr title  "arrival time, histogram"
bin	-INF	0
bin	24.962	0
bin	24.995333333333	0
bin	25.028666666667	0
bin	25.062	0
bin	25.095333333333	0
bin	25.128666666667	0
bin	25.162	0
bin	25.195333333333	0
bin	25.228666666667	0
bin	25.262	0
bin	25.295333333333	0
bin	25.328666666667	0
bin	25.362	0
bin	25.395333333333	0
bin	25.428666666667	0
bin	25.462	1
bin	25.495333333333	0
bin	25.528666666667	0
bin	25.562	0
bin	25.595333333333	0
bin	25.628666666667	0
bin	25.662	0
bin	25.695333333333	0
bin	25.728666666667	0
bin	25.762	0
bin	25.795333333333	0
bin	25.828666666667	0
bin	25.862	0
bin	25.895333333333	0
bin	25.928666666667	0
bin	25.962	0
statistic RandomGeometricGraph.rgnv[33] 	arrivalPerc:histogram
field count 1
field mean 1
field stddev nan
field sum 1
field sqrsum 1
field min 1
field max 1
attr interpolationmode  none
attr source  count(arrival)
attr title  "arrival perc, histogram"
bin	-INF	0
bin	0	0
bin	1	1
bin	2	0
statistic RandomGeometricGraph.rgnv[34] 	arrivalTime:histogram
field count 1
field mean 166.657
field stddev nan
field sum 166.657
field sqrsum 27774.555649
field min 166.657
field max 166.657
attr interpolationmode  none
attr source  arrivalTime
attr title  "arrival time, histogram"
bin	-INF	0
bin	166.157	0
bin	166.19033333333	0
bin	166.22366666667	0
bin	166.257	0
bin	166.29033333333	0
bin	166.32366666667	0
bin	166.357	0
bin	166.39033333333	0
bin	166.42366666667	0
bin	166.457	0
bin	166.49033333333	0
bin	166.52366666667	0
bin	166.557	0
bin	166.59033333333	0
bin	166.62366666667	0
bin	166.657	1
bin	166.69033333333	0
bin	166.72366666667	0
bin	166.757	0
bin	166.79033333333	0
bin	166.82366666667	0
bin	166.857	0
bin	166.89033333333	0
bin	166.92366666667	0
bin	166.957	0
bin	166.99033333333	0
bin	167.02366666667	0
bin	167.057	0
bin	167.09033333333	0
bin	167.12366666667	0
bin	167.157	0
statistic RandomGeometricGraph.rgnv[34] 	arrivalPerc:histogram
field count 1
field mean 1
field stddev nan
field sum 1
field sqrsum 1
field min 1
field max 1
attr interpolationmode  none
attr source  count(arrival)
attr title  "arrival perc, histogram"
bin	-INF	0
bin	0	0
bin	1	1
bin	2	0
statistic RandomGeometricGraph.rgnv[35] 	arrivalTime:histogram
field count 1
field mean 213.888
field stddev nan
field sum 213.888
field sqrsum 45748.076544
field min 213.888
field max 213.888
attr interpolationmode  none
attr source  arrivalTime
attr title  "arrival time, histogram"
bin	-INF	0
bin	213.388	0
bin	213.42133333333	0
bin	213.45466666667	0
bin	213.488	0
bin	213.52133333333	0
bin	213.55466666667	0
bin	213.588	0
bin	213.62133333333	0
bin	213.65466666667	0
bin	213.688	0
bin	213.72133333333	0
bin	213.75466666667	0
bin	213.788	0
bin	213.82133333333	0
bin	213.85466666667	0
bin	213.888	1
bin	213.92133333333	0
bin	213.95466666667	0
bin	213.988	0
bin	214.02133333333	0
bin	214.05466666667	0
bin	214.088	0
bin	214.12133333333	0
bin	214.15466666667	0
bin	214.188	0
bin	214.22133333333	0
bin	214.25466666667	0
bin	214.288	0
bin	214.32133333333	0
bin	214.35466666667	0
bin	214.388	0
statistic RandomGeometricGraph.rgnv[35] 	arrivalPerc:histogram
field count 1
field mean 1
field stddev nan
field sum 1
field sqrsum 1
field min 1
field max 1
attr interpolationmode  none
attr source  count(arrival)
attr title  "arrival perc, histogram"
bin	-INF	0
bin	0	0
bin	1	1
bin	2	0
statistic RandomGeometricGraph.rgnv[36] 	arrivalTime:histogram
field count 1
field mean 104.406
field stddev nan
field sum 104.406
field sqrsum 10900.612836
field min 104.406
field max 104.406
attr interpolationmode  none
attr source  arrivalTime
attr title  "arrival time, histogram"
bin	-INF	0
bin	103.906	0
bin	103.93933333333	0
bin	103.97266666667	0
bin	104.006	0
bin	104.03933333333	0
bin	104.07266666667	0
bin	104.106	0
bin	104.13933333333	0
bin	104.17266666667	0
bin	104.206	0
bin	104.23933333333	0
bin	104.27266666667	0
bin	104.306	0
bin	104.33933333333	0
bin	104.37266666667	0
bin	104.406	1
bin	104.43933333333	0
bin	104.47266666667	0
bin	104.506	0
bin	104.53933333333	0
bin	104.57266666667	0
bin	104.606	0
bin	104.63933333333	0
bin	104.67266666667	0
bin	104.706	0
bin	104.73933333333	0
bin	104.77266666667	0
bin	104.806	0
bin	104.83933333333	0
bin	104.87266666667	0
bin	104.906	0
statistic RandomGeometricGraph.rgnv[36] 	arrivalPerc:histogram
field count 1
field mean 1
field stddev nan
field sum 1
field sqrsum 1
field min 1
field max 1
attr interpolationmode  none
attr source  count(arrival)
attr title  "arrival perc, histogram"
bin	-INF	0
bin	0	0
bin	1	1
bin	2	0
statistic RandomGeometricGraph.rgnv[37] 	arrivalTime:histogram
field count 1
field mean 114.406
field stddev nan
field sum 114.406
field sqrsum 13088.732836
field min 114.406
field max 114.406
attr interpolationmode  none
attr source  arrivalTime
attr title  "arrival time, histogram"
bin	-INF	0
bin	113.906	0
bin	113.93933333333	0
bin	113.97266666667	0
bin	114.006	0
bin	114.03933333333	0
bin	114.07266666667	0
bin	114.106	0
bin	114.13933333333	0
bin	114.17266666667	0
bin	114.206	0
bin	114.23933333333	0
bin	114.27266666667	0
bin	114.306	0
bin	114.33933333333	0
bin	114.37266666667	0
bin	114.406	1
bin	114.43933333333	0
bin	114.47266666667	0
bin	114.506	0
bin	114.53933333333	0
bin	114.57266666667	0
bin	114.606	0
bin	114.63933333333	0
bin	114.67266666667	0
bin	114.706	0
bin	114.73933333333	0
bin	114.77266666667	0
bin	114.806	0
bin	114.83933333333	0
bin	114.87266666667	0
bin	114.906	0
statistic RandomGeometricGraph.rgnv[37] 	arrivalPerc:histogram
field count 1
field mean 1
field stddev nan
field sum 1
field sqrsum 1
field min 1
field max 1
attr interpolationmode  none
attr source  count(arrival)
attr title  "arrival perc, histogram"
bin	-INF	0
bin	0	0
bin	1	1
bin	2	0
statistic RandomGeometricGraph.rgnv[38] 	arrivalTime:histogram
field count 1
field mean 72.165
field stddev nan
field sum 72.165
field sqrsum 5207.787225
field min 72.165
field max 72.165
attr interpolationmode  none
attr source  arrivalTime
attr title  "arrival time, histogram"
bin	-INF	0
bin	71.665	0
bin	71.698333333333	0
bin	71.731666666667	0
bin	71.765	0
bin	71.798333333333	0
bin	71.831666666667	0
bin	71.865	0
bin	71.898333333333	0
bin	71.931666666667	0
bin	71.965	0
bin	71.998333333333	0
bin	72.031666666667	0
bin	72.065	0
bin	72.098333333333	0
bin	72.131666666667	0
bin	72.165	1
bin	72.198333333333	0
bin	72.231666666667	0
bin	72.265	0
bin	72.298333333333	0
bin	72.331666666667	0
bin	72.365	0
bin	72.398333333333	0
bin	72.431666666667	0
bin	72.465	0
bin	72.498333333333	0
bin	72.531666666667	0
bin	72.565	0
bin	72.598333333333	0
bin	72.631666666667	0
bin	72.665	0
statistic RandomGeometricGraph.rgnv[38] 	arrivalPerc:histogram
field count 1
field mean 1
field stddev nan
field sum 1
field sqrsum 1
field min 1
field max 1
attr interpolationmode  none
attr source  count(arrival)
attr title  "arrival perc, histogram"
bin	-INF	0
bin	0	0
bin	1	1
bin	2	0
statistic RandomGeometricGraph.rgnv[39] 	arrivalTime:histogram
field count 1
field mean 99.396
field stddev nan
field sum 99.396
field sqrsum 9879.564816
field min 99.396
field max 99.396
attr interpolationmode  none
attr source  arrivalTime
attr title  "arrival time, histogram"
bin	-INF	0
bin	98.896	0
bin	98.929333333333	0
bin	98.962666666667	0
bin	98.996	0
bin	99.029333333333	0
bin	99.062666666667	0
bin	99.096	0
bin	99.129333333333	0
bin	99.162666666667	0
bin	99.196	0
bin	99.229333333333	0
bin	99.262666666667	0
bin	99.296	0
bin	99.329333333333	0
bin	99.362666666667	0
bin	99.396	1
bin	99.429333333333	0
bin	99.462666666667	0
bin	99.496	0
bin	99.529333333333	0
bin	99.562666666667	0
bin	99.596	0
bin	99.629333333333	0
bin	99.662666666667	0
bin	99.696	0
bin	99.729333333333	0
bin	99.762666666667	0
bin	99.796	0
bin	99.829333333333	0
bin	99.862666666667	0
bin	99.896	0
statistic RandomGeometricGraph.rgnv[39] 	arrivalPerc:histogram
field count 1
field mean 1
field stddev nan
field sum 1
field sqrsum 1
field min 1
field max 1
attr interpolationmode  none
attr source  count(arrival)
attr title  "arrival perc, histogram"
bin	-INF	0
bin	0	0
bin	1	1
bin	2	0
statistic RandomGeometricGraph.rgnv[40] 	arrivalTime:histogram
field count 1
field mean 136.627
field stddev nan
field sum 136.627
field sqrsum 18666.937129
field min 136.627
field max 136.627
attr interpolationmode  none
attr source  arrivalTime
attr title  "arrival time, histogram"
bin	-INF	0
bin	136.127	0
bin	136.16033333333	0
bin	136.19366666667	0
bin	136.227	0
bin	136.26033333333	0
bin	136.29366666667	0
bin	136.327	0
bin	136.36033333333	0
bin	136.39366666667	0
bin	136.427	0
bin	136.46033333333	0
bin	136.49366666667	0
bin	136.527	0
bin	136.56033333333	0
bin	136.59366666667	0
bin	136.627	1
bin	136.66033333333	0
bin	136.69366666667	0
bin	136.727	0
bin	136.76033333333	0
bin	136.79366666667	0
bin	136.827	0
bin	136.86033333333	0
bin	136.89366666667	0
bin	136.927	0
bin	136.96033333333	0
bin	136.99366666667	0
bin	137.027	0
bin	137.06033333333	0
bin	137.09366666667	0
bin	137.127	0
statistic RandomGeometricGraph.rgnv[40] 	arrivalPerc:histogram
field count 1
field mean 1
field stddev nan
field sum 1
field sqrsum 1
field min 1
field max 1
attr interpolationmode  none
attr source  count(arrival)
attr title  "arrival perc, histogram"
bin	-INF	0
bin	0	0
bin	1	1
bin	2	0
statistic RandomGeometricGraph.rgnv[41] 	arrivalTime:histogram
field count 1
field mean 104.406
field stddev nan
field sum 104.406
field sqrsum 10900.612836
field min 104.406
field max 104.406
attr interpolationmode  none
attr source  arrivalTime
attr title  "arrival time, histogram"
bin	-INF	0
bin	103.906	0
bin	103.93933333333	0
bin	103.97266666667	0
bin	104.006	0
bin	104.03933333333	0
bin	104.07266666667	0
bin	104.106	0
bin	104.13933333333	0
bin	104.17266666667	0
bin	104.206	0
bin	104.23933333333	0
bin	104.27266666667	0
bin	104.306	0
bin	104.33933333333	0
bin	104.37266666667	0
bin	104.406	1
bin	104.43933333333	0
bin	104.47266666667	0
bin	104.506	0
bin	104.53933333333	0
bin	104.57266666667	0
bin	104.606	0
bin	104.63933333333	0
bin	104.67266666667	0
bin	104.706	0
bin	104.73933333333	0
bin	104.77266666667	0
bin	104.806	0
bin	104.83933333333	0
bin	104.87266666667	0
bin	104.906	0
statistic RandomGeometricGraph.rgnv[41] 	arrivalPerc:histogram
field count 1
field mean 1
field stddev nan
field sum 1
field sqrsum 1
field min 1
field max 1
attr interpolationmode  none
attr source  count(arrival)
attr title  "arrival perc, histogram"
bin	-INF	0
bin	0	0
bin	1	1
bin	2	0
statistic RandomGeometricGraph.rgnv[42] 	arrivalTime:histogram
field count 1
field mean 72.175
field stddev nan
field sum 72.175
field sqrsum 5209.230625
field min 72.175
field max 72.175
attr interpolationmode  none
attr source  arrivalTime
attr title  "arrival time, histogram"
bin	-INF	0
bin	71.675	0
bin	71.708333333333	0
bin	71.741666666667	0
bin	71.775	0
bin	71.808333333333	0
bin	71.841666666667	0
bin	71.875	0
bin	71.908333333333	0
bin	71.941666666667	0
bin	71.975	0
bin	72.008333333333	0
bin	72.041666666667	0
bin	72.075	0
bin	72.108333333333	0
bin	72.141666666667	0
bin	72.175	1
bin	72.208333333333	0
bin	72.241666666667	0
bin	72.275	0
bin	72.308333333333	0
bin	72.341666666667	0
bin	72.375	0
bin	72.408333333333	0
bin	72.441666666667	0
bin	72.475	0
bin	72.508333333333	0
bin	72.541666666667	0
bin	72.575	0
bin	72.608333333333	0
bin	72.641666666667	0
bin	72.675	0
statistic RandomGeometricGraph.rgnv[42] 	arrivalPerc:histogram
field count 1
field mean 1
field stddev nan
field sum 1
field sqrsum 1
field min 1
field max 1
attr interpolationmode  none
attr source  count(arrival)
attr title  "arrival perc, histogram"
bin	-INF	0
bin	0	0
bin	1	1
bin	2	0
statistic RandomGeometricGraph.rgnv[43] 	arrivalTime:histogram
field count 1
field mean 166.647
field stddev nan
field sum 166.647
field sqrsum 27771.222609
field min 166.647
field max 166.647
attr interpolationmode  none
attr source  arrivalTime
attr title  "arrival time, histogram"
bin	-INF	0
bin	166.147	0
bin	166.18033333333	0
bin	166.21366666667	0
bin	166.247	0
bin	166.28033333333	0
bin	166.31366666667	0
bin	166.347	0
bin	166.38033333333	0
bin	166.41366666667	0
bin	166.447	0
bin	166.48033333333	0
bin	166.51366666667	0
bin	166.547	0
bin	166.58033333333	0
bin	166.61366666667	0
bin	166.647	1
bin	166.68033333333	0
bin	166.71366666667	0
bin	166.747	0
bin	166.78033333333	0
bin	166.81366666667	0
bin	166.847	0
bin	166.88033333333	0
bin	166.91366666667	0
bin	166.947	0
bin	166.98033333333	0
bin	167.01366666667	0
bin	167.047	0
bin	167.08033333333	0
bin	167.11366666667	0
bin	167.147	0
statistic RandomGeometricGraph.rgnv[43] 	arrivalPerc:histogram
field count 1
field mean 1
field stddev nan
field sum 1
field sqrsum 1
field min 1
field max 1
attr interpolationmode  none
attr source  count(arrival)
attr title  "arrival perc, histogram"
bin	-INF	0
bin	0	0
bin	1	1
bin	2	0
statistic RandomGeometricGraph.rgnv[44] 	arrivalTime:histogram
field count 1
field mean 64.954
field stddev nan
field sum 64.954
field sqrsum 4219.022116
field min 64.954
field max 64.954
attr interpolationmode  none
attr source  arrivalTime
attr title  "arrival time, histogram"
bin	-INF	0
bin	64.454	0
bin	64.487333333333	0
bin	64.520666666667	0
bin	64.554	0
bin	64.587333333333	0
bin	64.620666666667	0
bin	64.654	0
bin	64.687333333333	0
bin	64.720666666667	0
bin	64.754	0
bin	64.787333333333	0
bin	64.820666666667	0
bin	64.854	0
bin	64.887333333333	0
bin	64.920666666667	0
bin	64.954	1
bin	64.987333333333	0
bin	65.020666666667	0
bin	65.054	0
bin	65.087333333333	0
bin	65.120666666667	0
bin	65.154	0
bin	65.187333333333	0
bin	65.220666666667	0
bin	65.254	0
bin	65.287333333333	0
bin	65.320666666667	0
bin	65.354	0
bin	65.387333333333	0
bin	65.420666666667	0
bin	65.454	0
statistic RandomGeometricGraph.rgnv[44] 	arrivalPerc:histogram
field count 1
field mean 1
field stddev nan
field sum 1
field sqrsum 1
field min 1
field max 1
attr interpolationmode  none
attr source  count(arrival)
attr title  "arrival perc, histogram"
bin	-INF	0
bin	0	0
bin	1	1
bin	2	0
statistic RandomGeometricGraph.rgnv[45] 	arrivalTime:histogram
field count 1
field mean 13.231
field stddev nan
field sum 13.231
field sqrsum 175.059361
field min 13.231
field max 13.231
attr interpolationmode  none
attr source  arrivalTime
attr title  "arrival time, histogram"
bin	-INF	0
bin	12.731	0
bin	12.764333333333	0
bin	12.797666666667	0
bin	12.831	0
bin	12.864333333333	0
bin	12.897666666667	0
bin	12.931	0
bin	12.964333333333	0
bin	12.997666666667	0
bin	13.031	0
bin	13.064333333333	0
bin	13.097666666667	0
bin	13.131	0
bin	13.164333333333	0
bin	13.197666666667	0
bin	13.231	1
bin	13.264333333333	0
bin	13.297666666667	0
bin	13.331	0
bin	13.364333333333	0
bin	13.397666666667	0
bin	13.431	0
bin	13.464333333333	0
bin	13.497666666667	0
bin	13.531	0
bin	13.564333333333	0
bin	13.597666666667	0
bin	13.631	0
bin	13.664333333333	0
bin	13.697666666667	0
bin	13.731	0
statistic RandomGeometricGraph.rgnv[45] 	arrivalPerc:histogram
field count 1
field mean 1
field stddev nan
field sum 1
field sqrsum 1
field min 1
field max 1
attr interpolationmode  none
attr source  count(arrival)
attr title  "arrival perc, histogram"
bin	-INF	0
bin	0	0
bin	1	1
bin	2	0
statistic RandomGeometricGraph.rgnv[46] 	arrivalTime:histogram
field count 1
field mean 231.099
field stddev nan
field sum 231.099
field sqrsum 53406.747801
field min 231.099
field max 231.099
attr interpolationmode  none
attr source  arrivalTime
attr title  "arrival time, histogram"
bin	-INF	0
bin	230.599	0
bin	230.63233333333	0
bin	230.66566666667	0
bin	230.699	0
bin	230.73233333333	0
bin	230.76566666667	0
bin	230.799	0
bin	230.83233333333	0
bin	230.86566666667	0
bin	230.899	0
bin	230.93233333333	0
bin	230.96566666667	0
bin	230.999	0
bin	231.03233333333	0
bin	231.06566666667	0
bin	231.099	1
bin	231.13233333333	0
bin	231.16566666667	0
bin	231.199	0
bin	231.23233333333	0
bin	231.26566666667	0
bin	231.299	0
bin	231.33233333333	0
bin	231.36566666667	0
bin	231.399	0
bin	231.43233333333	0
bin	231.46566666667	0
bin	231.499	0
bin	231.53233333333	0
bin	231.56566666667	0
bin	231.599	0
statistic RandomGeometricGraph.rgnv[46] 	arrivalPerc:histogram
field count 1
field mean 1
field stddev nan
field sum 1
field sqrsum 1
field min 1
field max 1
attr interpolationmode  none
attr source  count(arrival)
attr title  "arrival perc, histogram"
bin	-INF	0
bin	0	0
bin	1	1
bin	2	0
statistic RandomGeometricGraph.rgnv[47] 	arrivalTime:histogram
field count 1
field mean 87.185
field stddev nan
field sum 87.185
field sqrsum 7601.224225
field min 87.185
field max 87.185
attr interpolationmode  none
attr source  arrivalTime
attr title  "arrival time, histogram"
bin	-INF	0
bin	86.685	0
bin	86.718333333333	0
bin	86.751666666667	0
bin	86.785	0
bin	86.818333333333	0
bin	86.851666666667	0
bin	86.885	0
bin	86.918333333333	0
bin	86.951666666667	0
bin	86.985	0
bin	87.018333333333	0
bin	87.051666666667	0
bin	87.085	0
bin	87.118333333333	0
bin	87.151666666667	0
bin	87.185	1
bin	87.218333333333	0
bin	87.251666666667	0
bin	87.285	0
bin	87.318333333333	0
bin	87.351666666667	0
bin	87.385	0
bin	87.418333333333	0
bin	87.451666666667	0
bin	87.485	0
bin	87.518333333333	0
bin	87.551666666667	0
bin	87.585	0
bin	87.618333333333	0
bin	87.651666666667	0
bin	87.685	0
statistic RandomGeometricGraph.rgnv[47] 	arrivalPerc:histogram
field count 1
field mean 1
field stddev nan
field sum 1
field sqrsum 1
field min 1
field max 1
attr interpolationmode  none
attr source  count(arrival)
attr title  "arrival perc, histogram"
bin	-INF	0
bin	0	0
bin	1	1
bin	2	0
statistic RandomGeometricGraph.rgnv[48] 	arrivalTime:histogram
field count 1
field mean 109.406
field stddev nan
field sum 109.406
field sqrsum 11969.672836
field min 109.406
field max 109.406
attr interpolationmode  none
attr source  arrivalTime
attr title  "arrival time, histogram"
bin	-INF	0
bin	108.906	0
bin	108.93933333333	0
bin	108.97266666667	0
bin	109.006	0
bin	109.03933333333	0
bin	109.07266666667	0
bin	109.106	0
bin	109.13933333333	0
bin	109.17266666667	0
bin	109.206	0
bin	109.23933333333	0
bin	109.27266666667	0
bin	109.306	0
bin	109.33933333333	0
bin	109.37266666667	0
bin	109.406	1
bin	109.43933333333	0
bin	109.47266666667	0
bin	109.506	0
bin	109.53933333333	0
bin	109.57266666667	0
bin	109.606	0
bin	109.63933333333	0
bin	109.67266666667	0
bin	109.706	0
bin	109.73933333333	0
bin	109.77266666667	0
bin	109.806	0
bin	109.83933333333	0
bin	109.87266666667	0
bin	109.906	0
statistic RandomGeometricGraph.rgnv[48] 	arrivalPerc:histogram
field count 1
field mean 1
field stddev nan
field sum 1
field sqrsum 1
field min 1
field max 1
attr interpolationmode  none
attr source  count(arrival)
attr title  "arrival perc, histogram"
bin	-INF	0
bin	0	0
bin	1	1
bin	2	0
statistic RandomGeometricGraph.rgnv[49] 	arrivalTime:histogram
field count 1
field mean 119.416
field stddev nan
field sum 119.416
field sqrsum 14260.181056
field min 119.416
field max 119.416
attr interpolationmode  none
attr source  arrivalTime
attr title  "arrival time, histogram"
bin	-INF	0
bin	118.916	0
bin	118.94933333333	0
bin	118.98266666667	0
bin	119.016	0
bin	119.04933333333	0
bin	119.08266666667	0
bin	119.116	0
bin	119.14933333333	0
bin	119.18266666667	0
bin	119.216	0
bin	119.24933333333	0
bin	119.28266666667	0
bin	119.316	0
bin	119.34933333333	0
bin	119.38266666667	0
bin	119.416	1
bin	119.44933333333	0
bin	119.48266666667	0
bin	119.516	0
bin	119.54933333333	0
bin	119.58266666667	0
bin	119.616	0
bin	119.64933333333	0
bin	119.68266666667	0
bin	119.716	0
bin	119.74933333333	0
bin	119.78266666667	0
bin	119.816	0
bin	119.84933333333	0
bin	119.88266666667	0
bin	119.916	0
statistic RandomGeometricGraph.rgnv[49] 	arrivalPerc:histogram
field count 1
field mean 1
field stddev nan
field sum 1
field sqrsum 1
field min 1
field max 1
attr interpolationmode  none
attr source  count(arrival)
attr title  "arrival perc, histogram"
bin	-INF	0
bin	0	0
bin	1	1
bin	2	0
statistic RandomGeometricGraph.rgnv[50] 	arrivalTime:histogram
field count 1
field mean 62.155
field stddev nan
field sum 62.155
field sqrsum 3863.244025
field min 62.155
field max 62.155
attr interpolationmode  none
attr source  arrivalTime
attr title  "arrival time, histogram"
bin	-INF	0
bin	61.655	0
bin	61.688333333333	0
bin	61.721666666667	0
bin	61.755	0
bin	61.788333333333	0
bin	61.821666666667	0
bin	61.855	0
bin	61.888333333333	0
bin	61.921666666667	0
bin	61.955	0
bin	61.988333333333	0
bin	62.021666666667	0
bin	62.055	0
bin	62.088333333333	0
bin	62.121666666667	0
bin	62.155	1
bin	62.188333333333	0
bin	62.221666666667	0
bin	62.255	0
bin	62.288333333333	0
bin	62.321666666667	0
bin	62.355	0
bin	62.388333333333	0
bin	62.421666666667	0
bin	62.455	0
bin	62.488333333333	0
bin	62.521666666667	0
bin	62.555	0
bin	62.588333333333	0
bin	62.621666666667	0
bin	62.655	0
statistic RandomGeometricGraph.rgnv[50] 	arrivalPerc:histogram
field count 1
field mean 1
field stddev nan
field sum 1
field sqrsum 1
field min 1
field max 1
attr interpolationmode  none
attr source  count(arrival)
attr title  "arrival perc, histogram"
bin	-INF	0
bin	0	0
bin	1	1
bin	2	0
statistic RandomGeometricGraph.rgnv[51] 	arrivalTime:histogram
field count 1
field mean 198.878
field stddev nan
field sum 198.878
field sqrsum 39552.458884
field min 198.878
field max 198.878
attr interpolationmode  none
attr source  arrivalTime
attr title  "arrival time, histogram"
bin	-INF	0
bin	198.378	0
bin	198.41133333333	0
bin	198.44466666667	0
bin	198.478	0
bin	198.51133333333	0
bin	198.54466666667	0
bin	198.578	0
bin	198.61133333333	0
bin	198.64466666667	0
bin	198.678	0
bin	198.71133333333	0
bin	198.74466666667	0
bin	198.778	0
bin	198.81133333333	0
bin	198.84466666667	0
bin	198.878	1
bin	198.91133333333	0
bin	198.94466666667	0
bin	198.978	0
bin	199.01133333333	0
bin	199.04466666667	0
bin	199.078	0
bin	199.11133333333	0
bin	199.14466666667	0
bin	199.178	0
bin	199.21133333333	0
bin	199.24466666667	0
bin	199.278	0
bin	199.31133333333	0
bin	199.34466666667	0
bin	199.378	0
statistic RandomGeometricGraph.rgnv[51] 	arrivalPerc:histogram
field count 1
field mean 1
field stddev nan
field sum 1
field sqrsum 1
field min 1
field max 1
attr interpolationmode  none
attr source  count(arrival)
attr title  "arrival perc, histogram"
bin	-INF	0
bin	0	0
bin	1	1
bin	2	0
statistic RandomGeometricGraph.rgnv[52] 	arrivalTime:histogram
field count 1
field mean 156.647
field stddev nan
field sum 156.647
field sqrsum 24538.282609
field min 156.647
field max 156.647
attr interpolationmode  none
attr source  arrivalTime
attr title  "arrival time, histogram"
bin	-INF	0
bin	156.147	0
bin	156.18033333333	0
bin	156.21366666667	0
bin	156.247	0
bin	156.28033333333	0
bin	156.31366666667	0
bin	156.347	0
bin	156.38033333333	0
bin	156.41366666667	0
bin	156.447	0
bin	156.48033333333	0
bin	156.51366666667	0
bin	156.547	0
bin	156.58033333333	0
bin	156.61366666667	0
bin	156.647	1
bin	156.68033333333	0
bin	156.71366666667	0
bin	156.747	0
bin	156.78033333333	0
bin	156.81366666667	0
bin	156.847	0
bin	156.88033333333	0
bin	156.91366666667	0
bin	156.947	0
bin	156.98033333333	0
bin	157.01366666667	0
bin	157.047	0
bin	157.08033333333	0
bin	157.11366666667	0
bin	157.147	0
statistic RandomGeometricGraph.rgnv[52] 	arrivalPerc:histogram
field count 1
field mean 1
field stddev nan
field sum 1
field sqrsum 1
field min 1
field max 1
attr interpolationmode  none
attr source  count(arrival)
attr title  "arrival perc, histogram"
bin	-INF	0
bin	0	0
bin	1	1
bin	2	0
statistic RandomGeometricGraph.rgnv[53] 	arrivalTime:histogram
field count 1
field mean 221.089
field stddev nan
field sum 221.089
field sqrsum 48880.345921
field min 221.089
field max 221.089
attr interpolationmode  none
attr source  arrivalTime
attr title  "arrival time, histogram"
bin	-INF	0
bin	220.589	0
bin	220.62233333333	0
bin	220.65566666667	0
bin	220.689	0
bin	220.72233333333	0
bin	220.75566666667	0
bin	220.789	0
bin	220.82233333333	0
bin	220.85566666667	0
bin	220.889	0
bin	220.92233333333	0
bin	220.95566666667	0
bin	220.989	0
bin	221.02233333333	0
bin	221.05566666667	0
bin	221.089	1
bin	221.12233333333	0
bin	221.15566666667	0
bin	221.189	0
bin	221.22233333333	0
bin	221.25566666667	0
bin	221.289	0
bin	221.32233333333	0
bin	221.35566666667	0
bin	221.389	0
bin	221.42233333333	0
bin	221.45566666667	0
bin	221.489	0
bin	221.52233333333	0
bin	221.55566666667	0
bin	221.589	0
statistic RandomGeometricGraph.rgnv[53] 	arrivalPerc:histogram
field count 1
field mean 1
field stddev nan
field sum 1
field sqrsum 1
field min 1
field max 1
attr interpolationmode  none
attr source  count(arrival)
attr title  "arrival perc, histogram"
bin	-INF	0
bin	0	0
bin	1	1
bin	2	0
statistic RandomGeometricGraph.rgnv[54] 	arrivalTime:histogram
field count 1
field mean 114.406
field stddev nan
field sum 114.406
field sqrsum 13088.732836
field min 114.406
field max 114.406
attr interpolationmode  none
attr source  arrivalTime
attr title  "arrival time, histogram"
bin	-INF	0
bin	113.906	0
bin	113.93933333333	0
bin	113.97266666667	0
bin	114.006	0
bin	114.03933333333	0
bin	114.07266666667	0
bin	114.106	0
bin	114.13933333333	0
bin	114.17266666667	0
bin	114.206	0
bin	114.23933333333	0
bin	114.27266666667	0
bin	114.306	0
bin	114.33933333333	0
bin	114.37266666667	0
bin	114.406	1
bin	114.43933333333	0
bin	114.47266666667	0
bin	114.506	0
bin	114.53933333333	0
bin	114.57266666667	0
bin	114.606	0
bin	114.63933333333	0
bin	114.67266666667	0
bin	114.706	0
bin	114.73933333333	0
bin	114.77266666667	0
bin	114.806	0
bin	114.83933333333	0
bin	114.87266666667	0
bin	114.906	0
statistic RandomGeometricGraph.rgnv[54] 	arrivalPerc:histogram
field count 1
field mean 1
field stddev nan
field sum 1
field sqrsum 1
field min 1
field max 1
attr interpolationmode  none
attr source  count(arrival)
attr title  "arrival perc, histogram"
bin	-INF	0
bin	0	0
bin	1	1
bin	2	0
statistic RandomGeometricGraph.rgnv[55] 	arrivalTime:histogram
field count 1
field mean 278.34
field stddev nan
field sum 278.34
field sqrsum 77473.1556
field min 278.34
field max 278.34
attr interpolationmode  none
attr source  arrivalTime
attr title  "arrival time, histogram"
bin	-INF	0
bin	277.84	0
bin	277.87333333333	0
bin	277.90666666667	0
bin	277.94	0
bin	277.97333333333	0
bin	278.00666666667	0
bin	278.04	0
bin	278.07333333333	0
bin	278.10666666667	0
bin	278.14	0
bin	278.17333333333	0
bin	278.20666666667	0
bin	278.24	0
bin	278.27333333333	0
bin	278.30666666667	0
bin	278.34	1
bin	278.37333333333	0
bin	278.40666666667	0
bin	278.44	0
bin	278.47333333333	0
bin	278.50666666667	0
bin	278.54	0
bin	278.57333333333	0
bin	278.60666666667	0
bin	278.64	0
bin	278.67333333333	0
bin	278.70666666667	0
bin	278.74	0
bin	278.77333333333	0
bin	278.80666666667	0
bin	278.84	0
statistic RandomGeometricGraph.rgnv[55] 	arrivalPerc:histogram
field count 1
field mean 1
field stddev nan
field sum 1
field sqrsum 1
field min 1
field max 1
attr interpolationmode  none
attr source  count(arrival)
attr title  "arrival perc, histogram"
bin	-INF	0
bin	0	0
bin	1	1
bin	2	0
statistic RandomGeometricGraph.rgnv[56] 	arrivalTime:histogram
field count 1
field mean 151.637
field stddev nan
field sum 151.637
field sqrsum 22993.779769
field min 151.637
field max 151.637
attr interpolationmode  none
attr source  arrivalTime
attr title  "arrival time, histogram"
bin	-INF	0
bin	151.137	0
bin	151.17033333333	0
bin	151.20366666667	0
bin	151.237	0
bin	151.27033333333	0
bin	151.30366666667	0
bin	151.337	0
bin	151.37033333333	0
bin	151.40366666667	0
bin	151.437	0
bin	151.47033333333	0
bin	151.50366666667	0
bin	151.537	0
bin	151.57033333333	0
bin	151.60366666667	0
bin	151.637	1
bin	151.67033333333	0
bin	151.70366666667	0
bin	151.737	0
bin	151.77033333333	0
bin	151.80366666667	0
bin	151.837	0
bin	151.87033333333	0
bin	151.90366666667	0
bin	151.937	0
bin	151.97033333333	0
bin	152.00366666667	0
bin	152.037	0
bin	152.07033333333	0
bin	152.10366666667	0
bin	152.137	0
statistic RandomGeometricGraph.rgnv[56] 	arrivalPerc:histogram
field count 1
field mean 1
field stddev nan
field sum 1
field sqrsum 1
field min 1
field max 1
attr interpolationmode  none
attr source  count(arrival)
attr title  "arrival perc, histogram"
bin	-INF	0
bin	0	0
bin	1	1
bin	2	0
statistic RandomGeometricGraph.rgnv[57] 	arrivalTime:histogram
field count 1
field mean 104.406
field stddev nan
field sum 104.406
field sqrsum 10900.612836
field min 104.406
field max 104.406
attr interpolationmode  none
attr source  arrivalTime
attr title  "arrival time, histogram"
bin	-INF	0
bin	103.906	0
bin	103.93933333333	0
bin	103.97266666667	0
bin	104.006	0
bin	104.03933333333	0
bin	104.07266666667	0
bin	104.106	0
bin	104.13933333333	0
bin	104.17266666667	0
bin	104.206	0
bin	104.23933333333	0
bin	104.27266666667	0
bin	104.306	0
bin	104.33933333333	0
bin	104.37266666667	0
bin	104.406	1
bin	104.43933333333	0
bin	104.47266666667	0
bin	104.506	0
bin	104.53933333333	0
bin	104.57266666667	0
bin	104.606	0
bin	104.63933333333	0
bin	104.67266666667	0
bin	104.706	0
bin	104.73933333333	0
bin	104.77266666667	0
bin	104.806	0
bin	104.83933333333	0
bin	104.87266666667	0
bin	104.906	0
statistic RandomGeometricGraph.rgnv[57] 	arrivalPerc:histogram
field count 1
field mean 1
field stddev nan
field sum 1
field sqrsum 1
field min 1
field max 1
attr interpolationmode  none
attr source  count(arrival)
attr title  "arrival perc, histogram"
bin	-INF	0
bin	0	0
bin	1	1
bin	2	0
statistic RandomGeometricGraph.rgnv[58] 	arrivalTime:histogram
field count 1
field mean 283.34
field stddev nan
field sum 283.34
field sqrsum 80281.5556
field min 283.34
field max 283.34
attr interpolationmode  none
attr source  arrivalTime
attr title  "arrival time, histogram"
bin	-INF	0
bin	282.84	0
bin	282.87333333333	0
bin	282.90666666667	0
bin	282.94	0
bin	282.97333333333	0
bin	283.00666666667	0
bin	283.04	0
bin	283.07333333333	0
bin	283.10666666667	0
bin	283.14	0
bin	283.17333333333	0
bin	283.20666666667	0
bin	283.24	0
bin	283.27333333333	0
bin	283.30666666667	0
bin	283.34	1
bin	283.37333333333	0
bin	283.40666666667	0
bin	283.44	0
bin	283.47333333333	0
bin	283.50666666667	0
bin	283.54	0
bin	283.57333333333	0
bin	283.60666666667	0
bin	283.64	0
bin	283.67333333333	0
bin	283.70666666667	0
bin	283.74	0
bin	283.77333333333	0
bin	283.80666666667	0
bin	283.84	0
statistic RandomGeometricGraph.rgnv[58] 	arrivalPerc:histogram
field count 1
field mean 1
field stddev nan
field sum 1
field sqrsum 1
field min 1
field max 1
attr interpolationmode  none
attr source  count(arrival)
attr title  "arrival perc, histogram"
bin	-INF	0
bin	0	0
bin	1	1
bin	2	0
statistic RandomGeometricGraph.rgnv[59] 	arrivalTime:histogram
field count 1
field mean 193.878
field stddev nan
field sum 193.878
field sqrsum 37588.678884
field min 193.878
field max 193.878
attr interpolationmode  none
attr source  arrivalTime
attr title  "arrival time, histogram"
bin	-INF	0
bin	193.378	0
bin	193.41133333333	0
bin	193.44466666667	0
bin	193.478	0
bin	193.51133333333	0
bin	193.54466666667	0
bin	193.578	0
bin	193.61133333333	0
bin	193.64466666667	0
bin	193.678	0
bin	193.71133333333	0
bin	193.74466666667	0
bin	193.778	0
bin	193.81133333333	0
bin	193.84466666667	0
bin	193.878	1
bin	193.91133333333	0
bin	193.94466666667	0
bin	193.978	0
bin	194.01133333333	0
bin	194.04466666667	0
bin	194.078	0
bin	194.11133333333	0
bin	194.14466666667	0
bin	194.178	0
bin	194.21133333333	0
bin	194.24466666667	0
bin	194.278	0
bin	194.31133333333	0
bin	194.34466666667	0
bin	194.378	0
statistic RandomGeometricGraph.rgnv[59] 	arrivalPerc:histogram
field count 1
field mean 1
field stddev nan
field sum 1
field sqrsum 1
field min 1
field max 1
attr interpolationmode  none
attr source  count(arrival)
attr title  "arrival perc, histogram"
bin	-INF	0
bin	0	0
bin	1	1
bin	2	0
statistic RandomGeometricGraph.rgnv[60] 	arrivalTime:histogram
field count 1
field mean 203.878
field stddev nan
field sum 203.878
field sqrsum 41566.238884
field min 203.878
field max 203.878
attr interpolationmode  none
attr source  arrivalTime
attr title  "arrival time, histogram"
bin	-INF	0
bin	203.378	0
bin	203.41133333333	0
bin	203.44466666667	0
bin	203.478	0
bin	203.51133333333	0
bin	203.54466666667	0
bin	203.578	0
bin	203.61133333333	0
bin	203.64466666667	0
bin	203.678	0
bin	203.71133333333	0
bin	203.74466666667	0
bin	203.778	0
bin	203.81133333333	0
bin	203.84466666667	0
bin	203.878	1
bin	203.91133333333	0
bin	203.94466666667	0
bin	203.978	0
bin	204.01133333333	0
bin	204.04466666667	0
bin	204.078	0
bin	204.11133333333	0
bin	204.14466666667	0
bin	204.178	0
bin	204.21133333333	0
bin	204.24466666667	0
bin	204.278	0
bin	204.31133333333	0
bin	204.34466666667	0
bin	204.378	0
statistic RandomGeometricGraph.rgnv[60] 	arrivalPerc:histogram
field count 1
field mean 1
field stddev nan
field sum 1
field sqrsum 1
field min 1
field max 1
attr interpolationmode  none
attr source  count(arrival)
attr title  "arrival perc, histogram"
bin	-INF	0
bin	0	0
bin	1	1
bin	2	0
statistic RandomGeometricGraph.rgnv[61] 	arrivalTime:histogram
field count 1
field mean 124.416
field stddev nan
field sum 124.416
field sqrsum 15479.341056
field min 124.416
field max 124.416
attr interpolationmode  none
attr source  arrivalTime
attr title  "arrival time, histogram"
bin	-INF	0
bin	123.916	0
bin	123.94933333333	0
bin	123.98266666667	0
bin	124.016	0
bin	124.04933333333	0
bin	124.08266666667	0
bin	124.116	0
bin	124.14933333333	0
bin	124.18266666667	0
bin	124.216	0
bin	124.24933333333	0
bin	124.28266666667	0
bin	124.316	0
bin	124.34933333333	0
bin	124.38266666667	0
bin	124.416	1
bin	124.44933333333	0
bin	124.48266666667	0
bin	124.516	0
bin	124.54933333333	0
bin	124.58266666667	0
bin	124.616	0
bin	124.64933333333	0
bin	124.68266666667	0
bin	124.716	0
bin	124.74933333333	0
bin	124.78266666667	0
bin	124.816	0
bin	124.84933333333	0
bin	124.88266666667	0
bin	124.916	0
statistic RandomGeometricGraph.rgnv[61] 	arrivalPerc:histogram
field count 1
field mean 1
field stddev nan
field sum 1
field sqrsum 1
field min 1
field max 1
attr interpolationmode  none
attr source  count(arrival)
attr title  "arrival perc, histogram"
bin	-INF	0
bin	0	0
bin	1	1
bin	2	0
statistic RandomGeometricGraph.rgnv[62] 	arrivalTime:histogram
field count 1
field mean 47.713
field stddev nan
field sum 47.713
field sqrsum 2276.530369
field min 47.713
field max 47.713
attr interpolationmode  none
attr source  arrivalTime
attr title  "arrival time, histogram"
bin	-INF	0
bin	47.213	0
bin	47.246333333333	0
bin	47.279666666667	0
bin	47.313	0
bin	47.346333333333	0
bin	47.379666666667	0
bin	47.413	0
bin	47.446333333333	0
bin	47.479666666667	0
bin	47.513	0
bin	47.546333333333	0
bin	47.579666666667	0
bin	47.613	0
bin	47.646333333333	0
bin	47.679666666667	0
bin	47.713	1
bin	47.746333333333	0
bin	47.779666666667	0
bin	47.813	0
bin	47.846333333333	0
bin	47.879666666667	0
bin	47.913	0
bin	47.946333333333	0
bin	47.979666666667	0
bin	48.013	0
bin	48.046333333333	0
bin	48.079666666667	0
bin	48.113	0
bin	48.146333333333	0
bin	48.179666666667	0
bin	48.213	0
statistic RandomGeometricGraph.rgnv[62] 	arrivalPerc:histogram
field count 1
field mean 1
field stddev nan
field sum 1
field sqrsum 1
field min 1
field max 1
attr interpolationmode  none
attr source  count(arrival)
attr title  "arrival perc, histogram"
bin	-INF	0
bin	0	0
bin	1	1
bin	2	0
statistic RandomGeometricGraph.rgnv[63] 	arrivalTime:histogram
field count 1
field mean 298.36
field stddev nan
field sum 298.36
field sqrsum 89018.6896
field min 298.36
field max 298.36
attr interpolationmode  none
attr source  arrivalTime
attr title  "arrival time, histogram"
bin	-INF	0
bin	297.86	0
bin	297.89333333333	0
bin	297.92666666667	0
bin	297.96	0
bin	297.99333333333	0
bin	298.02666666667	0
bin	298.06	0
bin	298.09333333333	0
bin	298.12666666667	0
bin	298.16	0
bin	298.19333333333	0
bin	298.22666666667	0
bin	298.26	0
bin	298.29333333333	0
bin	298.32666666667	0
bin	298.36	1
bin	298.39333333333	0
bin	298.42666666667	0
bin	298.46	0
bin	298.49333333333	0
bin	298.52666666667	0
bin	298.56	0
bin	298.59333333333	0
bin	298.62666666667	0
bin	298.66	0
bin	298.69333333333	0
bin	298.72666666667	0
bin	298.76	0
bin	298.79333333333	0
bin	298.82666666667	0
bin	298.86	0
statistic RandomGeometricGraph.rgnv[63] 	arrivalPerc:histogram
field count 1
field mean 1
field stddev nan
field sum 1
field sqrsum 1
field min 1
field max 1
attr interpolationmode  none
attr source  count(arrival)
attr title  "arrival perc, histogram"
bin	-INF	0
bin	0	0
bin	1	1
bin	2	0
statistic RandomGeometricGraph.rgnv[64] 	arrivalTime:histogram
field count 1
field mean 178.858
field stddev nan
field sum 178.858
field sqrsum 31990.184164
field min 178.858
field max 178.858
attr interpolationmode  none
attr source  arrivalTime
attr title  "arrival time, histogram"
bin	-INF	0
bin	178.358	0
bin	178.39133333333	0
bin	178.42466666667	0
bin	178.458	0
bin	178.49133333333	0
bin	178.52466666667	0
bin	178.558	0
bin	178.59133333333	0
bin	178.62466666667	0
bin	178.658	0
bin	178.69133333333	0
bin	178.72466666667	0
bin	178.758	0
bin	178.79133333333	0
bin	178.82466666667	0
bin	178.858	1
bin	178.89133333333	0
bin	178.92466666667	0
bin	178.958	0
bin	178.99133333333	0
bin	179.02466666667	0
bin	179.058	0
bin	179.09133333333	0
bin	179.12466666667	0
bin	179.158	0
bin	179.19133333333	0
bin	179.22466666667	0
bin	179.258	0
bin	179.29133333333	0
bin	179.32466666667	0
bin	179.358	0
statistic RandomGeometricGraph.rgnv[64] 	arrivalPerc:histogram
field count 1
field mean 1
field stddev nan
field sum 1
field sqrsum 1
field min 1
field max 1
attr interpolationmode  none
attr source  count(arrival)
attr title  "arrival perc, histogram"
bin	-INF	0
bin	0	0
bin	1	1
bin	2	0
statistic RandomGeometricGraph.rgnv[65] 	arrivalTime:histogram
field count 1
field mean 131.627
field stddev nan
field sum 131.627
field sqrsum 17325.667129
field min 131.627
field max 131.627
attr interpolationmode  none
attr source  arrivalTime
attr title  "arrival time, histogram"
bin	-INF	0
bin	131.127	0
bin	131.16033333333	0
bin	131.19366666667	0
bin	131.227	0
bin	131.26033333333	0
bin	131.29366666667	0
bin	131.327	0
bin	131.36033333333	0
bin	131.39366666667	0
bin	131.427	0
bin	131.46033333333	0
bin	131.49366666667	0
bin	131.527	0
bin	131.56033333333	0
bin	131.59366666667	0
bin	131.627	1
bin	131.66033333333	0
bin	131.69366666667	0
bin	131.727	0
bin	131.76033333333	0
bin	131.79366666667	0
bin	131.827	0
bin	131.86033333333	0
bin	131.89366666667	0
bin	131.927	0
bin	131.96033333333	0
bin	131.99366666667	0
bin	132.027	0
bin	132.06033333333	0
bin	132.09366666667	0
bin	132.127	0
statistic RandomGeometricGraph.rgnv[65] 	arrivalPerc:histogram
field count 1
field mean 1
field stddev nan
field sum 1
field sqrsum 1
field min 1
field max 1
attr interpolationmode  none
attr source  count(arrival)
attr title  "arrival perc, histogram"
bin	-INF	0
bin	0	0
bin	1	1
bin	2	0
statistic RandomGeometricGraph.rgnv[66] 	arrivalTime:histogram
field count 1
field mean 293.35
field stddev nan
field sum 293.35
field sqrsum 86054.2225
field min 293.35
field max 293.35
attr interpolationmode  none
attr source  arrivalTime
attr title  "arrival time, histogram"
bin	-INF	0
bin	292.85	0
bin	292.88333333333	0
bin	292.91666666667	0
bin	292.95	0
bin	292.98333333333	0
bin	293.01666666667	0
bin	293.05	0
bin	293.08333333333	0
bin	293.11666666667	0
bin	293.15	0
bin	293.18333333333	0
bin	293.21666666667	0
bin	293.25	0
bin	293.28333333333	0
bin	293.31666666667	0
bin	293.35	1
bin	293.38333333333	0
bin	293.41666666667	0
bin	293.45	0
bin	293.48333333333	0
bin	293.51666666667	0
bin	293.55	0
bin	293.58333333333	0
bin	293.61666666667	0
bin	293.65	0
bin	293.68333333333	0
bin	293.71666666667	0
bin	293.75	0
bin	293.78333333333	0
bin	293.81666666667	0
bin	293.85	0
statistic RandomGeometricGraph.rgnv[66] 	arrivalPerc:histogram
field count 1
field mean 1
field stddev nan
field sum 1
field sqrsum 1
field min 1
field max 1
attr interpolationmode  none
attr source  count(arrival)
attr title  "arrival perc, histogram"
bin	-INF	0
bin	0	0
bin	1	1
bin	2	0
statistic RandomGeometricGraph.rgnv[67] 	arrivalTime:histogram
field count 1
field mean 119.416
field stddev nan
field sum 119.416
[...]
attr title  "arrival perc, histogram"
bin	-INF	0
bin	0	0
bin	1	1
bin	2	0
statistic RandomGeometricGraph.rgnv[83] 	arrivalTime:histogram
field count 1
field mean 141.627
field stddev nan
field sum 141.627
field sqrsum 20058.207129
field min 141.627
field max 141.627
attr interpolationmode  none
attr source  arrivalTime
attr title  "arrival time, histogram"
bin	-INF	0
bin	141.127	0
bin	141.16033333333	0
bin	141.19366666667	0
bin	141.227	0
bin	141.26033333333	0
bin	141.29366666667	0
bin	141.327	0
bin	141.36033333333	0
bin	141.39366666667	0
bin	141.427	0
bin	141.46033333333	0
bin	141.49366666667	0
bin	141.527	0
bin	141.56033333333	0
bin	141.59366666667	0
bin	141.627	1
bin	141.66033333333	0
bin	141.69366666667	0
bin	141.727	0
bin	141.76033333333	0
bin	141.79366666667	0
bin	141.827	0
bin	141.86033333333	0
bin	141.89366666667	0
bin	141.927	0
bin	141.96033333333	0
bin	141.99366666667	0
bin	142.027	0
bin	142.06033333333	0
bin	142.09366666667	0
bin	142.127	0
statistic RandomGeometricGraph.rgnv[83] 	arrivalPerc:histogram
field count 1
field mean 1
field stddev nan
field sum 1
field sqrsum 1
field min 1
field max 1
attr interpolationmode  none
attr source  count(arrival)
attr title  "arrival perc, histogram"
bin	-INF	0
bin	0	0
bin	1	1
bin	2	0
statistic RandomGeometricGraph.rgnv[84] 	arrivalTime:histogram
field count 1
field mean 310.561
field stddev nan
field sum 310.561
field sqrsum 96448.134721
field min 310.561
field max 310.561
attr interpolationmode  none
attr source  arrivalTime
attr title  "arrival time, histogram"
bin	-INF	0
bin	310.061	0
bin	310.09433333333	0
bin	310.12766666667	0
bin	310.161	0
bin	310.19433333333	0
bin	310.22766666667	0
bin	310.261	0
bin	310.29433333333	0
bin	310.32766666667	0
bin	310.361	0
bin	310.39433333333	0
bin	310.42766666667	0
bin	310.461	0
bin	310.49433333333	0
bin	310.52766666667	0
bin	310.561	1
bin	310.59433333333	0
bin	310.62766666667	0
bin	310.661	0
bin	310.69433333333	0
bin	310.72766666667	0
bin	310.761	0
bin	310.79433333333	0
bin	310.82766666667	0
bin	310.861	0
bin	310.89433333333	0
bin	310.92766666667	0
bin	310.961	0
bin	310.99433333333	0
bin	311.02766666667	0
bin	311.061	0
statistic RandomGeometricGraph.rgnv[84] 	arrivalPerc:histogram
field count 1
field mean 1
field stddev nan
field sum 1
field sqrsum 1
field min 1
field max 1
attr interpolationmode  none
attr source  count(arrival)
attr title  "arrival perc, histogram"
bin	-INF	0
bin	0	0
bin	1	1
bin	2	0
statistic RandomGeometricGraph.rgnv[85] 	arrivalTime:histogram
field count 1
field mean 288.35
field stddev nan
field sum 288.35
field sqrsum 83145.7225
field min 288.35
field max 288.35
attr interpolationmode  none
attr source  arrivalTime
attr title  "arrival time, histogram"
bin	-INF	0
bin	287.85	0
bin	287.88333333333	0
bin	287.91666666667	0
bin	287.95	0
bin	287.98333333333	0
bin	288.01666666667	0
bin	288.05	0
bin	288.08333333333	0
bin	288.11666666667	0
bin	288.15	0
bin	288.18333333333	0
bin	288.21666666667	0
bin	288.25	0
bin	288.28333333333	0
bin	288.31666666667	0
bin	288.35	1
bin	288.38333333333	0
bin	288.41666666667	0
bin	288.45	0
bin	288.48333333333	0
bin	288.51666666667	0
bin	288.55	0
bin	288.58333333333	0
bin	288.61666666667	0
bin	288.65	0
bin	288.68333333333	0
bin	288.71666666667	0
bin	288.75	0
bin	288.78333333333	0
bin	288.81666666667	0
bin	288.85	0
statistic RandomGeometricGraph.rgnv[85] 	arrivalPerc:histogram
field count 1
field mean 1
field stddev nan
field sum 1
field sqrsum 1
field min 1
field max 1
attr interpolationmode  none
attr source  count(arrival)
attr title  "arrival perc, histogram"
bin	-INF	0
bin	0	0
bin	1	1
bin	2	0
statistic RandomGeometricGraph.rgnv[86] 	arrivalTime:histogram
field count 1
field mean 59.944
field stddev nan
field sum 59.944
field sqrsum 3593.283136
field min 59.944
field max 59.944
attr interpolationmode  none
attr source  arrivalTime
attr title  "arrival time, histogram"
bin	-INF	0
bin	59.444	0
bin	59.477333333333	0
bin	59.510666666667	0
bin	59.544	0
bin	59.577333333333	0
bin	59.610666666667	0
bin	59.644	0
bin	59.677333333333	0
bin	59.710666666667	0
bin	59.744	0
bin	59.777333333333	0
bin	59.810666666667	0
bin	59.844	0
bin	59.877333333333	0
bin	59.910666666667	0
bin	59.944	1
bin	59.977333333333	0
bin	60.010666666667	0
bin	60.044	0
bin	60.077333333333	0
bin	60.110666666667	0
bin	60.144	0
bin	60.177333333333	0
bin	60.210666666667	0
bin	60.244	0
bin	60.277333333333	0
bin	60.310666666667	0
bin	60.344	0
bin	60.377333333333	0
bin	60.410666666667	0
bin	60.444	0
statistic RandomGeometricGraph.rgnv[86] 	arrivalPerc:histogram
field count 1
field mean 1
field stddev nan
field sum 1
field sqrsum 1
field min 1
field max 1
attr interpolationmode  none
attr source  count(arrival)
attr title  "arrival perc, histogram"
bin	-INF	0
bin	0	0
bin	1	1
bin	2	0
statistic RandomGeometricGraph.rgnv[87] 	arrivalTime:histogram
field count 1
field mean 77.185
field stddev nan
field sum 77.185
field sqrsum 5957.524225
field min 77.185
field max 77.185
attr interpolationmode  none
attr source  arrivalTime
attr title  "arrival time, histogram"
bin	-INF	0
bin	76.685	0
bin	76.718333333333	0
bin	76.751666666667	0
bin	76.785	0
bin	76.818333333333	0
bin	76.851666666667	0
bin	76.885	0
bin	76.918333333333	0
bin	76.951666666667	0
bin	76.985	0
bin	77.018333333333	0
bin	77.051666666667	0
bin	77.085	0
bin	77.118333333333	0
bin	77.151666666667	0
bin	77.185	1
bin	77.218333333333	0
bin	77.251666666667	0
bin	77.285	0
bin	77.318333333333	0
bin	77.351666666667	0
bin	77.385	0
bin	77.418333333333	0
bin	77.451666666667	0
bin	77.485	0
bin	77.518333333333	0
bin	77.551666666667	0
bin	77.585	0
bin	77.618333333333	0
bin	77.651666666667	0
bin	77.685	0
statistic RandomGeometricGraph.rgnv[87] 	arrivalPerc:histogram
field count 1
field mean 1
field stddev nan
field sum 1
field sqrsum 1
field min 1
field max 1
attr interpolationmode  none
attr source  count(arrival)
attr title  "arrival perc, histogram"
bin	-INF	0
bin	0	0
bin	1	1
bin	2	0
statistic RandomGeometricGraph.rgnv[88] 	arrivalTime:histogram
field count 1
field mean 124.416
field stddev nan
field sum 124.416
field sqrsum 15479.341056
field min 124.416
field max 124.416
attr interpolationmode  none
attr source  arrivalTime
attr title  "arrival time, histogram"
bin	-INF	0
bin	123.916	0
bin	123.94933333333	0
bin	123.98266666667	0
bin	124.016	0
bin	124.04933333333	0
bin	124.08266666667	0
bin	124.116	0
bin	124.14933333333	0
bin	124.18266666667	0
bin	124.216	0
bin	124.24933333333	0
bin	124.28266666667	0
bin	124.316	0
bin	124.34933333333	0
bin	124.38266666667	0
bin	124.416	1
bin	124.44933333333	0
bin	124.48266666667	0
bin	124.516	0
bin	124.54933333333	0
bin	124.58266666667	0
bin	124.616	0
bin	124.64933333333	0
bin	124.68266666667	0
bin	124.716	0
bin	124.74933333333	0
bin	124.78266666667	0
bin	124.816	0
bin	124.84933333333	0
bin	124.88266666667	0
bin	124.916	0
statistic RandomGeometricGraph.rgnv[88] 	arrivalPerc:histogram
field count 1
field mean 1
field stddev nan
field sum 1
field sqrsum 1
field min 1
field max 1
attr interpolationmode  none
attr source  count(arrival)
attr title  "arrival perc, histogram"
bin	-INF	0
bin	0	0
bin	1	1
bin	2	0
statistic RandomGeometricGraph.rgnv[89] 	arrivalTime:histogram
field count 1
field mean 208.888
field stddev nan
field sum 208.888
field sqrsum 43634.196544
field min 208.888
field max 208.888
attr interpolationmode  none
attr source  arrivalTime
attr title  "arrival time, histogram"
bin	-INF	0
bin	208.388	0
bin	208.42133333333	0
bin	208.45466666667	0
bin	208.488	0
bin	208.52133333333	0
bin	208.55466666667	0
bin	208.588	0
bin	208.62133333333	0
bin	208.65466666667	0
bin	208.688	0
bin	208.72133333333	0
bin	208.75466666667	0
bin	208.788	0
bin	208.82133333333	0
bin	208.85466666667	0
bin	208.888	1
bin	208.92133333333	0
bin	208.95466666667	0
bin	208.988	0
bin	209.02133333333	0
bin	209.05466666667	0
bin	209.088	0
bin	209.12133333333	0
bin	209.15466666667	0
bin	209.188	0
bin	209.22133333333	0
bin	209.25466666667	0
bin	209.288	0
bin	209.32133333333	0
bin	209.35466666667	0
bin	209.388	0
statistic RandomGeometricGraph.rgnv[89] 	arrivalPerc:histogram
field count 1
field mean 1
field stddev nan
field sum 1
field sqrsum 1
field min 1
field max 1
attr interpolationmode  none
attr source  count(arrival)
attr title  "arrival perc, histogram"
bin	-INF	0
bin	0	0
bin	1	1
bin	2	0
statistic RandomGeometricGraph.rgnv[90] 	arrivalTime:histogram
field count 1
field mean 146.637
field stddev nan
field sum 146.637
field sqrsum 21502.409769
field min 146.637
field max 146.637
attr interpolationmode  none
attr source  arrivalTime
attr title  "arrival time, histogram"
bin	-INF	0
bin	146.137	0
bin	146.17033333333	0
bin	146.20366666667	0
bin	146.237	0
bin	146.27033333333	0
bin	146.30366666667	0
bin	146.337	0
bin	146.37033333333	0
bin	146.40366666667	0
bin	146.437	0
bin	146.47033333333	0
bin	146.50366666667	0
bin	146.537	0
bin	146.57033333333	0
bin	146.60366666667	0
bin	146.637	1
bin	146.67033333333	0
bin	146.70366666667	0
bin	146.737	0
bin	146.77033333333	0
bin	146.80366666667	0
bin	146.837	0
bin	146.87033333333	0
bin	146.90366666667	0
bin	146.937	0
bin	146.97033333333	0
bin	147.00366666667	0
bin	147.037	0
bin	147.07033333333	0
bin	147.10366666667	0
bin	147.137	0
statistic RandomGeometricGraph.rgnv[90] 	arrivalPerc:histogram
field count 1
field mean 1
field stddev nan
field sum 1
field sqrsum 1
field min 1
field max 1
attr interpolationmode  none
attr source  count(arrival)
attr title  "arrival perc, histogram"
bin	-INF	0
bin	0	0
bin	1	1
bin	2	0
statistic RandomGeometricGraph.rgnv[91] 	arrivalTime:histogram
field count 1
field mean 109.406
field stddev nan
field sum 109.406
field sqrsum 11969.672836
field min 109.406
field max 109.406
attr interpolationmode  none
attr source  arrivalTime
attr title  "arrival time, histogram"
bin	-INF	0
bin	108.906	0
bin	108.93933333333	0
bin	108.97266666667	0
bin	109.006	0
bin	109.03933333333	0
bin	109.07266666667	0
bin	109.106	0
bin	109.13933333333	0
bin	109.17266666667	0
bin	109.206	0
bin	109.23933333333	0
bin	109.27266666667	0
bin	109.306	0
bin	109.33933333333	0
bin	109.37266666667	0
bin	109.406	1
bin	109.43933333333	0
bin	109.47266666667	0
bin	109.506	0
bin	109.53933333333	0
bin	109.57266666667	0
bin	109.606	0
bin	109.63933333333	0
bin	109.67266666667	0
bin	109.706	0
bin	109.73933333333	0
bin	109.77266666667	0
bin	109.806	0
bin	109.83933333333	0
bin	109.87266666667	0
bin	109.906	0
statistic RandomGeometricGraph.rgnv[91] 	arrivalPerc:histogram
field count 1
field mean 1
field stddev nan
field sum 1
field sqrsum 1
field min 1
field max 1
attr interpolationmode  none
attr source  count(arrival)
attr title  "arrival perc, histogram"
bin	-INF	0
bin	0	0
bin	1	1
bin	2	0
statistic RandomGeometricGraph.rgnv[92] 	arrivalTime:histogram
field count 1
field mean 241.109
field stddev nan
field sum 241.109
field sqrsum 58133.549881
field min 241.109
field max 241.109
attr interpolationmode  none
attr source  arrivalTime
attr title  "arrival time, histogram"
bin	-INF	0
bin	240.609	0
bin	240.64233333333	0
bin	240.67566666667	0
bin	240.709	0
bin	240.74233333333	0
bin	240.77566666667	0
bin	240.809	0
bin	240.84233333333	0
bin	240.87566666667	0
bin	240.909	0
bin	240.94233333333	0
bin	240.97566666667	0
bin	241.009	0
bin	241.04233333333	0
bin	241.07566666667	0
bin	241.109	1
bin	241.14233333333	0
bin	241.17566666667	0
bin	241.209	0
bin	241.24233333333	0
bin	241.27566666667	0
bin	241.309	0
bin	241.34233333333	0
bin	241.37566666667	0
bin	241.409	0
bin	241.44233333333	0
bin	241.47566666667	0
bin	241.509	0
bin	241.54233333333	0
bin	241.57566666667	0
bin	241.609	0
statistic RandomGeometricGraph.rgnv[92] 	arrivalPerc:histogram
field count 1
field mean 1
field stddev nan
field sum 1
field sqrsum 1
field min 1
field max 1
attr interpolationmode  none
attr source  count(arrival)
attr title  "arrival perc, histogram"
bin	-INF	0
bin	0	0
bin	1	1
bin	2	0
statistic RandomGeometricGraph.rgnv[93] 	arrivalTime:histogram
field count 1
field mean 82.185
field stddev nan
field sum 82.185
field sqrsum 6754.374225
field min 82.185
field max 82.185
attr interpolationmode  none
attr source  arrivalTime
attr title  "arrival time, histogram"
bin	-INF	0
bin	81.685	0
bin	81.718333333333	0
bin	81.751666666667	0
bin	81.785	0
bin	81.818333333333	0
bin	81.851666666667	0
bin	81.885	0
bin	81.918333333333	0
bin	81.951666666667	0
bin	81.985	0
bin	82.018333333333	0
bin	82.051666666667	0
bin	82.085	0
bin	82.118333333333	0
bin	82.151666666667	0
bin	82.185	1
bin	82.218333333333	0
bin	82.251666666667	0
bin	82.285	0
bin	82.318333333333	0
bin	82.351666666667	0
bin	82.385	0
bin	82.418333333333	0
bin	82.451666666667	0
bin	82.485	0
bin	82.518333333333	0
bin	82.551666666667	0
bin	82.585	0
bin	82.618333333333	0
bin	82.651666666667	0
bin	82.685	0
statistic RandomGeometricGraph.rgnv[93] 	arrivalPerc:histogram
field count 1
field mean 1
field stddev nan
field sum 1
field sqrsum 1
field min 1
field max 1
attr interpolationmode  none
attr source  count(arrival)
attr title  "arrival perc, histogram"
bin	-INF	0
bin	0	0
bin	1	1
bin	2	0
statistic RandomGeometricGraph.rgnv[94] 	arrivalTime:histogram
field count 1
field mean 99.406
field stddev nan
field sum 99.406
field sqrsum 9881.552836
field min 99.406
field max 99.406
attr interpolationmode  none
attr source  arrivalTime
attr title  "arrival time, histogram"
bin	-INF	0
bin	98.906	0
bin	98.939333333333	0
bin	98.972666666667	0
bin	99.006	0
bin	99.039333333333	0
bin	99.072666666667	0
bin	99.106	0
bin	99.139333333333	0
bin	99.172666666667	0
bin	99.206	0
bin	99.239333333333	0
bin	99.272666666667	0
bin	99.306	0
bin	99.339333333333	0
bin	99.372666666667	0
bin	99.406	1
bin	99.439333333333	0
bin	99.472666666667	0
bin	99.506	0
bin	99.539333333333	0
bin	99.572666666667	0
bin	99.606	0
bin	99.639333333333	0
bin	99.672666666667	0
bin	99.706	0
bin	99.739333333333	0
bin	99.772666666667	0
bin	99.806	0
bin	99.839333333333	0
bin	99.872666666667	0
bin	99.906	0
statistic RandomGeometricGraph.rgnv[94] 	arrivalPerc:histogram
field count 1
field mean 1
field stddev nan
field sum 1
field sqrsum 1
field min 1
field max 1
attr interpolationmode  none
attr source  count(arrival)
attr title  "arrival perc, histogram"
bin	-INF	0
bin	0	0
bin	1	1
bin	2	0
statistic RandomGeometricGraph.rgnv[95] 	arrivalTime:histogram
field count 1
field mean 171.657
field stddev nan
field sum 171.657
field sqrsum 29466.125649
field min 171.657
field max 171.657
attr interpolationmode  none
attr source  arrivalTime
attr title  "arrival time, histogram"
bin	-INF	0
bin	171.157	0
bin	171.19033333333	0
bin	171.22366666667	0
bin	171.257	0
bin	171.29033333333	0
bin	171.32366666667	0
bin	171.357	0
bin	171.39033333333	0
bin	171.42366666667	0
bin	171.457	0
bin	171.49033333333	0
bin	171.52366666667	0
bin	171.557	0
bin	171.59033333333	0
bin	171.62366666667	0
bin	171.657	1
bin	171.69033333333	0
bin	171.72366666667	0
bin	171.757	0
bin	171.79033333333	0
bin	171.82366666667	0
bin	171.857	0
bin	171.89033333333	0
bin	171.92366666667	0
bin	171.957	0
bin	171.99033333333	0
bin	172.02366666667	0
bin	172.057	0
bin	172.09033333333	0
bin	172.12366666667	0
bin	172.157	0
statistic RandomGeometricGraph.rgnv[95] 	arrivalPerc:histogram
field count 1
field mean 1
field stddev nan
field sum 1
field sqrsum 1
field min 1
field max 1
attr interpolationmode  none
attr source  count(arrival)
attr title  "arrival perc, histogram"
bin	-INF	0
bin	0	0
bin	1	1
bin	2	0
statistic RandomGeometricGraph.rgnv[96] 	arrivalTime:histogram
field count 1
field mean 183.858
field stddev nan
field sum 183.858
field sqrsum 33803.764164
field min 183.858
field max 183.858
attr interpolationmode  none
attr source  arrivalTime
attr title  "arrival time, histogram"
bin	-INF	0
bin	183.358	0
bin	183.39133333333	0
bin	183.42466666667	0
bin	183.458	0
bin	183.49133333333	0
bin	183.52466666667	0
bin	183.558	0
bin	183.59133333333	0
bin	183.62466666667	0
bin	183.658	0
bin	183.69133333333	0
bin	183.72466666667	0
bin	183.758	0
bin	183.79133333333	0
bin	183.82466666667	0
bin	183.858	1
bin	183.89133333333	0
bin	183.92466666667	0
bin	183.958	0
bin	183.99133333333	0
bin	184.02466666667	0
bin	184.058	0
bin	184.09133333333	0
bin	184.12466666667	0
bin	184.158	0
bin	184.19133333333	0
bin	184.22466666667	0
bin	184.258	0
bin	184.29133333333	0
bin	184.32466666667	0
bin	184.358	0
statistic RandomGeometricGraph.rgnv[96] 	arrivalPerc:histogram
field count 1
field mean 1
field stddev nan
field sum 1
field sqrsum 1
field min 1
field max 1
attr interpolationmode  none
attr source  count(arrival)
attr title  "arrival perc, histogram"
bin	-INF	0
bin	0	0
bin	1	1
bin	2	0
statistic RandomGeometricGraph.rgnv[97] 	arrivalTime:histogram
field count 1
field mean 256.119
field stddev nan
field sum 256.119
field sqrsum 65596.942161
field min 256.119
field max 256.119
attr interpolationmode  none
attr source  arrivalTime
attr title  "arrival time, histogram"
bin	-INF	0
bin	255.619	0
bin	255.65233333333	0
bin	255.68566666667	0
bin	255.719	0
bin	255.75233333333	0
bin	255.78566666667	0
bin	255.819	0
bin	255.85233333333	0
bin	255.88566666667	0
bin	255.919	0
bin	255.95233333333	0
bin	255.98566666667	0
bin	256.019	0
bin	256.05233333333	0
bin	256.08566666667	0
bin	256.119	1
bin	256.15233333333	0
bin	256.18566666667	0
bin	256.219	0
bin	256.25233333333	0
bin	256.28566666667	0
bin	256.319	0
bin	256.35233333333	0
bin	256.38566666667	0
bin	256.419	0
bin	256.45233333333	0
bin	256.48566666667	0
bin	256.519	0
bin	256.55233333333	0
bin	256.58566666667	0
bin	256.619	0
statistic RandomGeometricGraph.rgnv[97] 	arrivalPerc:histogram
field count 1
field mean 1
field stddev nan
field sum 1
field sqrsum 1
field min 1
field max 1
attr interpolationmode  none
attr source  count(arrival)
attr title  "arrival perc, histogram"
bin	-INF	0
bin	0	0
bin	1	1
bin	2	0
statistic RandomGeometricGraph.rgnv[98] 	arrivalTime:histogram
field count 1
field mean 37.693
field stddev nan
field sum 37.693
field sqrsum 1420.762249
field min 37.693
field max 37.693
attr interpolationmode  none
attr source  arrivalTime
attr title  "arrival time, histogram"
bin	-INF	0
bin	37.193	0
bin	37.226333333333	0
bin	37.259666666667	0
bin	37.293	0
bin	37.326333333333	0
bin	37.359666666667	0
bin	37.393	0
bin	37.426333333333	0
bin	37.459666666667	0
bin	37.493	0
bin	37.526333333333	0
bin	37.559666666667	0
bin	37.593	0
bin	37.626333333333	0
bin	37.659666666667	0
bin	37.693	1
bin	37.726333333333	0
bin	37.759666666667	0
bin	37.793	0
bin	37.826333333333	0
bin	37.859666666667	0
bin	37.893	0
bin	37.926333333333	0
bin	37.959666666667	0
bin	37.993	0
bin	38.026333333333	0
bin	38.059666666667	0
bin	38.093	0
bin	38.126333333333	0
bin	38.159666666667	0
bin	38.193	0
statistic RandomGeometricGraph.rgnv[98] 	arrivalPerc:histogram
field count 1
field mean 1
field stddev nan
field sum 1
field sqrsum 1
field min 1
field max 1
attr interpolationmode  none
attr source  count(arrival)
attr title  "arrival perc, histogram"
bin	-INF	0
bin	0	0
bin	1	1
bin	2	0
statistic RandomGeometricGraph.rgnv[99] 	arrivalTime:histogram
field count 1
field mean 59.944
field stddev nan
field sum 59.944
field sqrsum 3593.283136
field min 59.944
field max 59.944
attr interpolationmode  none
attr source  arrivalTime
attr title  "arrival time, histogram"
bin	-INF	0
bin	59.444	0
bin	59.477333333333	0
bin	59.510666666667	0
bin	59.544	0
bin	59.577333333333	0
bin	59.610666666667	0
bin	59.644	0
bin	59.677333333333	0
bin	59.710666666667	0
bin	59.744	0
bin	59.777333333333	0
bin	59.810666666667	0
bin	59.844	0
bin	59.877333333333	0
bin	59.910666666667	0
bin	59.944	1
bin	59.977333333333	0
bin	60.010666666667	0
bin	60.044	0
bin	60.077333333333	0
bin	60.110666666667	0
bin	60.144	0
bin	60.177333333333	0
bin	60.210666666667	0
bin	60.244	0
bin	60.277333333333	0
bin	60.310666666667	0
bin	60.344	0
bin	60.377333333333	0
bin	60.410666666667	0
bin	60.444	0
statistic RandomGeometricGraph.rgnv[99] 	arrivalPerc:histogram
field count 1
field mean 1
field stddev nan
field sum 1
field sqrsum 1
field min 1
field max 1
attr interpolationmode  none
attr source  count(arrival)
attr title  "arrival perc, histogram"
bin	-INF	0
bin	0	0
bin	1	1
bin	2	0
