version 2
run rgg100-7-20170110-16:27:47-11200
attr configname rgg100
attr datetime 20170110-16:27:47
attr experiment rgg100
attr inifile iniFile/D001/omnetpp_50D001.ini
attr iterationvars ""
attr iterationvars2 $repetition=7
attr measurement ""
attr network blegossipprj.net.randomgeometricgraph.RandomGeometricGraph
attr processid 11200
attr repetition 7
attr replication #7
attr resultdir ../../results/D001/r50D001
attr runnumber 7
attr seedset 7
param RandomGeometricGraph.netSize 100
param RandomGeometricGraph.radius 50
param RandomGeometricGraph.rgnv[*].areaLength 70
param RandomGeometricGraph.rgnv[*].areaWidth 70

statistic RandomGeometricGraph.sc 	arrivalPercentage
field count 99
field mean 1
field stddev 0
field sum 99
field sqrsum 99
field min 1
field max 1
bin	-INF	0
bin	0	0
bin	1	99
bin	2	0
statistic RandomGeometricGraph.sc 	arrivalTime
field count 99
field mean 163.27287878788
field stddev 89.536257218853
field sum 16164.015
field sqrsum 3424785.914783
field min 0
field max 340.571
bin	-INF	0
bin	-170.2855	0
bin	-147.58076666667	0
bin	-124.87603333333	0
bin	-102.1713	0
bin	-79.466566666667	0
bin	-56.761833333333	0
bin	-34.0571	0
bin	-11.352366666667	1
bin	11.352366666667	3
bin	34.0571	9
bin	56.761833333333	8
bin	79.466566666667	9
bin	102.1713	10
bin	124.87603333333	7
bin	147.58076666667	7
bin	170.2855	6
bin	192.99023333333	7
bin	215.69496666667	9
bin	238.3997	5
bin	261.10443333333	7
bin	283.80916666667	4
bin	306.5139	4
bin	329.21863333333	3
bin	351.92336666667	0
bin	374.6281	0
bin	397.33283333333	0
bin	420.03756666667	0
bin	442.7423	0
bin	465.44703333333	0
bin	488.15176666667	0
bin	510.8565	0
statistic RandomGeometricGraph.rgnv[0] 	arrivalTime:histogram
field count 1
field mean 193.858
field stddev nan
field sum 193.858
field sqrsum 37580.924164
field min 193.858
field max 193.858
attr interpolationmode  none
attr source  arrivalTime
attr title  "arrival time, histogram"
bin	-INF	0
bin	193.358	0
bin	193.39133333333	0
bin	193.42466666667	0
bin	193.458	0
bin	193.49133333333	0
bin	193.52466666667	0
bin	193.558	0
bin	193.59133333333	0
bin	193.62466666667	0
bin	193.658	0
bin	193.69133333333	0
bin	193.72466666667	0
bin	193.758	0
bin	193.79133333333	0
bin	193.82466666667	0
bin	193.858	1
bin	193.89133333333	0
bin	193.92466666667	0
bin	193.958	0
bin	193.99133333333	0
bin	194.02466666667	0
bin	194.058	0
bin	194.09133333333	0
bin	194.12466666667	0
bin	194.158	0
bin	194.19133333333	0
bin	194.22466666667	0
bin	194.258	0
bin	194.29133333333	0
bin	194.32466666667	0
bin	194.358	0
statistic RandomGeometricGraph.rgnv[0] 	arrivalPerc:histogram
field count 1
field mean 1
field stddev nan
field sum 1
field sqrsum 1
field min 1
field max 1
attr interpolationmode  none
attr source  count(arrival)
attr title  "arrival perc, histogram"
bin	-INF	0
bin	0	0
bin	1	1
bin	2	0
statistic RandomGeometricGraph.rgnv[1] 	arrivalTime:histogram
field count 1
field mean 151.627
field stddev nan
field sum 151.627
field sqrsum 22990.747129
field min 151.627
field max 151.627
attr interpolationmode  none
attr source  arrivalTime
attr title  "arrival time, histogram"
bin	-INF	0
bin	151.127	0
bin	151.16033333333	0
bin	151.19366666667	0
bin	151.227	0
bin	151.26033333333	0
bin	151.29366666667	0
bin	151.327	0
bin	151.36033333333	0
bin	151.39366666667	0
bin	151.427	0
bin	151.46033333333	0
bin	151.49366666667	0
bin	151.527	0
bin	151.56033333333	0
bin	151.59366666667	0
bin	151.627	1
bin	151.66033333333	0
bin	151.69366666667	0
bin	151.727	0
bin	151.76033333333	0
bin	151.79366666667	0
bin	151.827	0
bin	151.86033333333	0
bin	151.89366666667	0
bin	151.927	0
bin	151.96033333333	0
bin	151.99366666667	0
bin	152.027	0
bin	152.06033333333	0
bin	152.09366666667	0
bin	152.127	0
statistic RandomGeometricGraph.rgnv[1] 	arrivalPerc:histogram
field count 1
field mean 1
field stddev nan
field sum 1
field sqrsum 1
field min 1
field max 1
attr interpolationmode  none
attr source  count(arrival)
attr title  "arrival perc, histogram"
bin	-INF	0
bin	0	0
bin	1	1
bin	2	0
statistic RandomGeometricGraph.rgnv[2] 	arrivalTime:histogram
field count 1
field mean 59.944
field stddev nan
field sum 59.944
field sqrsum 3593.283136
field min 59.944
field max 59.944
attr interpolationmode  none
attr source  arrivalTime
attr title  "arrival time, histogram"
bin	-INF	0
bin	59.444	0
bin	59.477333333333	0
bin	59.510666666667	0
bin	59.544	0
bin	59.577333333333	0
bin	59.610666666667	0
bin	59.644	0
bin	59.677333333333	0
bin	59.710666666667	0
bin	59.744	0
bin	59.777333333333	0
bin	59.810666666667	0
bin	59.844	0
bin	59.877333333333	0
bin	59.910666666667	0
bin	59.944	1
bin	59.977333333333	0
bin	60.010666666667	0
bin	60.044	0
bin	60.077333333333	0
bin	60.110666666667	0
bin	60.144	0
bin	60.177333333333	0
bin	60.210666666667	0
bin	60.244	0
bin	60.277333333333	0
bin	60.310666666667	0
bin	60.344	0
bin	60.377333333333	0
bin	60.410666666667	0
bin	60.444	0
statistic RandomGeometricGraph.rgnv[2] 	arrivalPerc:histogram
field count 1
field mean 1
field stddev nan
field sum 1
field sqrsum 1
field min 1
field max 1
attr interpolationmode  none
attr source  count(arrival)
attr title  "arrival perc, histogram"
bin	-INF	0
bin	0	0
bin	1	1
bin	2	0
statistic RandomGeometricGraph.rgnv[3] 	arrivalTime:histogram
field count 1
field mean 161.637
field stddev nan
field sum 161.637
field sqrsum 26126.519769
field min 161.637
field max 161.637
attr interpolationmode  none
attr source  arrivalTime
attr title  "arrival time, histogram"
bin	-INF	0
bin	161.137	0
bin	161.17033333333	0
bin	161.20366666667	0
bin	161.237	0
bin	161.27033333333	0
bin	161.30366666667	0
bin	161.337	0
bin	161.37033333333	0
bin	161.40366666667	0
bin	161.437	0
bin	161.47033333333	0
bin	161.50366666667	0
bin	161.537	0
bin	161.57033333333	0
bin	161.60366666667	0
bin	161.637	1
bin	161.67033333333	0
bin	161.70366666667	0
bin	161.737	0
bin	161.77033333333	0
bin	161.80366666667	0
bin	161.837	0
bin	161.87033333333	0
bin	161.90366666667	0
bin	161.937	0
bin	161.97033333333	0
bin	162.00366666667	0
bin	162.037	0
bin	162.07033333333	0
bin	162.10366666667	0
bin	162.137	0
statistic RandomGeometricGraph.rgnv[3] 	arrivalPerc:histogram
field count 1
field mean 1
field stddev nan
field sum 1
field sqrsum 1
field min 1
field max 1
attr interpolationmode  none
attr source  count(arrival)
attr title  "arrival perc, histogram"
bin	-INF	0
bin	0	0
bin	1	1
bin	2	0
statistic RandomGeometricGraph.rgnv[4] 	arrivalTime:histogram
field count 1
field mean 59.944
field stddev nan
field sum 59.944
field sqrsum 3593.283136
field min 59.944
field max 59.944
attr interpolationmode  none
attr source  arrivalTime
attr title  "arrival time, histogram"
bin	-INF	0
bin	59.444	0
bin	59.477333333333	0
bin	59.510666666667	0
bin	59.544	0
bin	59.577333333333	0
bin	59.610666666667	0
bin	59.644	0
bin	59.677333333333	0
bin	59.710666666667	0
bin	59.744	0
bin	59.777333333333	0
bin	59.810666666667	0
bin	59.844	0
bin	59.877333333333	0
bin	59.910666666667	0
bin	59.944	1
bin	59.977333333333	0
bin	60.010666666667	0
bin	60.044	0
bin	60.077333333333	0
bin	60.110666666667	0
bin	60.144	0
bin	60.177333333333	0
bin	60.210666666667	0
bin	60.244	0
bin	60.277333333333	0
bin	60.310666666667	0
bin	60.344	0
bin	60.377333333333	0
bin	60.410666666667	0
bin	60.444	0
statistic RandomGeometricGraph.rgnv[4] 	arrivalPerc:histogram
field count 1
field mean 1
field stddev nan
field sum 1
field sqrsum 1
field min 1
field max 1
attr interpolationmode  none
attr source  count(arrival)
attr title  "arrival perc, histogram"
bin	-INF	0
bin	0	0
bin	1	1
bin	2	0
statistic RandomGeometricGraph.rgnv[5] 	arrivalTime:histogram
field count 1
field mean 218.878
field stddev nan
field sum 218.878
field sqrsum 47907.578884
field min 218.878
field max 218.878
attr interpolationmode  none
attr source  arrivalTime
attr title  "arrival time, histogram"
bin	-INF	0
bin	218.378	0
bin	218.41133333333	0
bin	218.44466666667	0
bin	218.478	0
bin	218.51133333333	0
bin	218.54466666667	0
bin	218.578	0
bin	218.61133333333	0
bin	218.64466666667	0
bin	218.678	0
bin	218.71133333333	0
bin	218.74466666667	0
bin	218.778	0
bin	218.81133333333	0
bin	218.84466666667	0
bin	218.878	1
bin	218.91133333333	0
bin	218.94466666667	0
bin	218.978	0
bin	219.01133333333	0
bin	219.04466666667	0
bin	219.078	0
bin	219.11133333333	0
bin	219.14466666667	0
bin	219.178	0
bin	219.21133333333	0
bin	219.24466666667	0
bin	219.278	0
bin	219.31133333333	0
bin	219.34466666667	0
bin	219.378	0
statistic RandomGeometricGraph.rgnv[5] 	arrivalPerc:histogram
field count 1
field mean 1
field stddev nan
field sum 1
field sqrsum 1
field min 1
field max 1
attr interpolationmode  none
attr source  count(arrival)
attr title  "arrival perc, histogram"
bin	-INF	0
bin	0	0
bin	1	1
bin	2	0
statistic RandomGeometricGraph.rgnv[6] 	arrivalTime:histogram
field count 1
field mean 54.934
field stddev nan
field sum 54.934
field sqrsum 3017.744356
field min 54.934
field max 54.934
attr interpolationmode  none
attr source  arrivalTime
attr title  "arrival time, histogram"
bin	-INF	0
bin	54.434	0
bin	54.467333333333	0
bin	54.500666666667	0
bin	54.534	0
bin	54.567333333333	0
bin	54.600666666667	0
bin	54.634	0
bin	54.667333333333	0
bin	54.700666666667	0
bin	54.734	0
bin	54.767333333333	0
bin	54.800666666667	0
bin	54.834	0
bin	54.867333333333	0
bin	54.900666666667	0
bin	54.934	1
bin	54.967333333333	0
bin	55.000666666667	0
bin	55.034	0
bin	55.067333333333	0
bin	55.100666666667	0
bin	55.134	0
bin	55.167333333333	0
bin	55.200666666667	0
bin	55.234	0
bin	55.267333333333	0
bin	55.300666666667	0
bin	55.334	0
bin	55.367333333333	0
bin	55.400666666667	0
bin	55.434	0
statistic RandomGeometricGraph.rgnv[6] 	arrivalPerc:histogram
field count 1
field mean 1
field stddev nan
field sum 1
field sqrsum 1
field min 1
field max 1
attr interpolationmode  none
attr source  count(arrival)
attr title  "arrival perc, histogram"
bin	-INF	0
bin	0	0
bin	1	1
bin	2	0
statistic RandomGeometricGraph.rgnv[7] 	arrivalTime:histogram
field count 1
field mean 109.396
field stddev nan
field sum 109.396
field sqrsum 11967.484816
field min 109.396
field max 109.396
attr interpolationmode  none
attr source  arrivalTime
attr title  "arrival time, histogram"
bin	-INF	0
bin	108.896	0
bin	108.92933333333	0
bin	108.96266666667	0
bin	108.996	0
bin	109.02933333333	0
bin	109.06266666667	0
bin	109.096	0
bin	109.12933333333	0
bin	109.16266666667	0
bin	109.196	0
bin	109.22933333333	0
bin	109.26266666667	0
bin	109.296	0
bin	109.32933333333	0
bin	109.36266666667	0
bin	109.396	1
bin	109.42933333333	0
bin	109.46266666667	0
bin	109.496	0
bin	109.52933333333	0
bin	109.56266666667	0
bin	109.596	0
bin	109.62933333333	0
bin	109.66266666667	0
bin	109.696	0
bin	109.72933333333	0
bin	109.76266666667	0
bin	109.796	0
bin	109.82933333333	0
bin	109.86266666667	0
bin	109.896	0
statistic RandomGeometricGraph.rgnv[7] 	arrivalPerc:histogram
field count 1
field mean 1
field stddev nan
field sum 1
field sqrsum 1
field min 1
field max 1
attr interpolationmode  none
attr source  count(arrival)
attr title  "arrival perc, histogram"
bin	-INF	0
bin	0	0
bin	1	1
bin	2	0
statistic RandomGeometricGraph.rgnv[8] 	arrivalTime:histogram
field count 1
field mean 266.129
field stddev nan
field sum 266.129
field sqrsum 70824.644641
field min 266.129
field max 266.129
attr interpolationmode  none
attr source  arrivalTime
attr title  "arrival time, histogram"
bin	-INF	0
bin	265.629	0
bin	265.66233333333	0
bin	265.69566666667	0
bin	265.729	0
bin	265.76233333333	0
bin	265.79566666667	0
bin	265.829	0
bin	265.86233333333	0
bin	265.89566666667	0
bin	265.929	0
bin	265.96233333333	0
bin	265.99566666667	0
bin	266.029	0
bin	266.06233333333	0
bin	266.09566666667	0
bin	266.129	1
bin	266.16233333333	0
bin	266.19566666667	0
bin	266.229	0
bin	266.26233333333	0
bin	266.29566666667	0
bin	266.329	0
bin	266.36233333333	0
bin	266.39566666667	0
bin	266.429	0
bin	266.46233333333	0
bin	266.49566666667	0
bin	266.529	0
bin	266.56233333333	0
bin	266.59566666667	0
bin	266.629	0
statistic RandomGeometricGraph.rgnv[8] 	arrivalPerc:histogram
field count 1
field mean 1
field stddev nan
field sum 1
field sqrsum 1
field min 1
field max 1
attr interpolationmode  none
attr source  count(arrival)
attr title  "arrival perc, histogram"
bin	-INF	0
bin	0	0
bin	1	1
bin	2	0
statistic RandomGeometricGraph.rgnv[9] 	arrivalTime:histogram
field count 1
field mean 156.627
field stddev nan
field sum 156.627
field sqrsum 24532.017129
field min 156.627
field max 156.627
attr interpolationmode  none
attr source  arrivalTime
attr title  "arrival time, histogram"
bin	-INF	0
bin	156.127	0
bin	156.16033333333	0
bin	156.19366666667	0
bin	156.227	0
bin	156.26033333333	0
bin	156.29366666667	0
bin	156.327	0
bin	156.36033333333	0
bin	156.39366666667	0
bin	156.427	0
bin	156.46033333333	0
bin	156.49366666667	0
bin	156.527	0
bin	156.56033333333	0
bin	156.59366666667	0
bin	156.627	1
bin	156.66033333333	0
bin	156.69366666667	0
bin	156.727	0
bin	156.76033333333	0
bin	156.79366666667	0
bin	156.827	0
bin	156.86033333333	0
bin	156.89366666667	0
bin	156.927	0
bin	156.96033333333	0
bin	156.99366666667	0
bin	157.027	0
bin	157.06033333333	0
bin	157.09366666667	0
bin	157.127	0
statistic RandomGeometricGraph.rgnv[9] 	arrivalPerc:histogram
field count 1
field mean 1
field stddev nan
field sum 1
field sqrsum 1
field min 1
field max 1
attr interpolationmode  none
attr source  count(arrival)
attr title  "arrival perc, histogram"
bin	-INF	0
bin	0	0
bin	1	1
bin	2	0
statistic RandomGeometricGraph.rgnv[10] 	arrivalTime:histogram
field count 1
field mean 129.416
field stddev nan
field sum 129.416
field sqrsum 16748.501056
field min 129.416
field max 129.416
attr interpolationmode  none
attr source  arrivalTime
attr title  "arrival time, histogram"
bin	-INF	0
bin	128.916	0
bin	128.94933333333	0
bin	128.98266666667	0
bin	129.016	0
bin	129.04933333333	0
bin	129.08266666667	0
bin	129.116	0
bin	129.14933333333	0
bin	129.18266666667	0
bin	129.216	0
bin	129.24933333333	0
bin	129.28266666667	0
bin	129.316	0
bin	129.34933333333	0
bin	129.38266666667	0
bin	129.416	1
bin	129.44933333333	0
bin	129.48266666667	0
bin	129.516	0
bin	129.54933333333	0
bin	129.58266666667	0
bin	129.616	0
bin	129.64933333333	0
bin	129.68266666667	0
bin	129.716	0
bin	129.74933333333	0
bin	129.78266666667	0
bin	129.816	0
bin	129.84933333333	0
bin	129.88266666667	0
bin	129.916	0
statistic RandomGeometricGraph.rgnv[10] 	arrivalPerc:histogram
field count 1
field mean 1
field stddev nan
field sum 1
field sqrsum 1
field min 1
field max 1
attr interpolationmode  none
attr source  count(arrival)
attr title  "arrival perc, histogram"
bin	-INF	0
bin	0	0
bin	1	1
bin	2	0
statistic RandomGeometricGraph.rgnv[11] 	arrivalTime:histogram
field count 1
field mean 320.551
field stddev nan
field sum 320.551
field sqrsum 102752.943601
field min 320.551
field max 320.551
attr interpolationmode  none
attr source  arrivalTime
attr title  "arrival time, histogram"
bin	-INF	0
bin	320.051	0
bin	320.08433333333	0
bin	320.11766666667	0
bin	320.151	0
bin	320.18433333333	0
bin	320.21766666667	0
bin	320.251	0
bin	320.28433333333	0
bin	320.31766666667	0
bin	320.351	0
bin	320.38433333333	0
bin	320.41766666667	0
bin	320.451	0
bin	320.48433333333	0
bin	320.51766666667	0
bin	320.551	1
bin	320.58433333333	0
bin	320.61766666667	0
bin	320.651	0
bin	320.68433333333	0
bin	320.71766666667	0
bin	320.751	0
bin	320.78433333333	0
bin	320.81766666667	0
bin	320.851	0
bin	320.88433333333	0
bin	320.91766666667	0
bin	320.951	0
bin	320.98433333333	0
bin	321.01766666667	0
bin	321.051	0
statistic RandomGeometricGraph.rgnv[11] 	arrivalPerc:histogram
field count 1
field mean 1
field stddev nan
field sum 1
field sqrsum 1
field min 1
field max 1
attr interpolationmode  none
attr source  count(arrival)
attr title  "arrival perc, histogram"
bin	-INF	0
bin	0	0
bin	1	1
bin	2	0
statistic RandomGeometricGraph.rgnv[12] 	arrivalTime:histogram
field count 1
field mean 228.908
field stddev nan
field sum 228.908
field sqrsum 52398.872464
field min 228.908
field max 228.908
attr interpolationmode  none
attr source  arrivalTime
attr title  "arrival time, histogram"
bin	-INF	0
bin	228.408	0
bin	228.44133333333	0
bin	228.47466666667	0
bin	228.508	0
bin	228.54133333333	0
bin	228.57466666667	0
bin	228.608	0
bin	228.64133333333	0
bin	228.67466666667	0
bin	228.708	0
bin	228.74133333333	0
bin	228.77466666667	0
bin	228.808	0
bin	228.84133333333	0
bin	228.87466666667	0
bin	228.908	1
bin	228.94133333333	0
bin	228.97466666667	0
bin	229.008	0
bin	229.04133333333	0
bin	229.07466666667	0
bin	229.108	0
bin	229.14133333333	0
bin	229.17466666667	0
bin	229.208	0
bin	229.24133333333	0
bin	229.27466666667	0
bin	229.308	0
bin	229.34133333333	0
bin	229.37466666667	0
bin	229.408	0
statistic RandomGeometricGraph.rgnv[12] 	arrivalPerc:histogram
field count 1
field mean 1
field stddev nan
field sum 1
field sqrsum 1
field min 1
field max 1
attr interpolationmode  none
attr source  count(arrival)
attr title  "arrival perc, histogram"
bin	-INF	0
bin	0	0
bin	1	1
bin	2	0
statistic RandomGeometricGraph.rgnv[13] 	arrivalTime:histogram
field count 1
field mean 124.406
field stddev nan
field sum 124.406
field sqrsum 15476.852836
field min 124.406
field max 124.406
attr interpolationmode  none
attr source  arrivalTime
attr title  "arrival time, histogram"
bin	-INF	0
bin	123.906	0
bin	123.93933333333	0
bin	123.97266666667	0
bin	124.006	0
bin	124.03933333333	0
bin	124.07266666667	0
bin	124.106	0
bin	124.13933333333	0
bin	124.17266666667	0
bin	124.206	0
bin	124.23933333333	0
bin	124.27266666667	0
bin	124.306	0
bin	124.33933333333	0
bin	124.37266666667	0
bin	124.406	1
bin	124.43933333333	0
bin	124.47266666667	0
bin	124.506	0
bin	124.53933333333	0
bin	124.57266666667	0
bin	124.606	0
bin	124.63933333333	0
bin	124.67266666667	0
bin	124.706	0
bin	124.73933333333	0
bin	124.77266666667	0
bin	124.806	0
bin	124.83933333333	0
bin	124.87266666667	0
bin	124.906	0
statistic RandomGeometricGraph.rgnv[13] 	arrivalPerc:histogram
field count 1
field mean 1
field stddev nan
field sum 1
field sqrsum 1
field min 1
field max 1
attr interpolationmode  none
attr source  count(arrival)
attr title  "arrival perc, histogram"
bin	-INF	0
bin	0	0
bin	1	1
bin	2	0
statistic RandomGeometricGraph.rgnv[14] 	arrivalTime:histogram
field count 1
field mean 218.888
field stddev nan
field sum 218.888
field sqrsum 47911.956544
field min 218.888
field max 218.888
attr interpolationmode  none
attr source  arrivalTime
attr title  "arrival time, histogram"
bin	-INF	0
bin	218.388	0
bin	218.42133333333	0
bin	218.45466666667	0
bin	218.488	0
bin	218.52133333333	0
bin	218.55466666667	0
bin	218.588	0
bin	218.62133333333	0
bin	218.65466666667	0
bin	218.688	0
bin	218.72133333333	0
bin	218.75466666667	0
bin	218.788	0
bin	218.82133333333	0
bin	218.85466666667	0
bin	218.888	1
bin	218.92133333333	0
bin	218.95466666667	0
bin	218.988	0
bin	219.02133333333	0
bin	219.05466666667	0
bin	219.088	0
bin	219.12133333333	0
bin	219.15466666667	0
bin	219.188	0
bin	219.22133333333	0
bin	219.25466666667	0
bin	219.288	0
bin	219.32133333333	0
bin	219.35466666667	0
bin	219.388	0
statistic RandomGeometricGraph.rgnv[14] 	arrivalPerc:histogram
field count 1
field mean 1
field stddev nan
field sum 1
field sqrsum 1
field min 1
field max 1
attr interpolationmode  none
attr source  count(arrival)
attr title  "arrival perc, histogram"
bin	-INF	0
bin	0	0
bin	1	1
bin	2	0
statistic RandomGeometricGraph.rgnv[15] 	arrivalTime:histogram
field count 1
field mean 139.426
field stddev nan
field sum 139.426
field sqrsum 19439.609476
field min 139.426
field max 139.426
attr interpolationmode  none
attr source  arrivalTime
attr title  "arrival time, histogram"
bin	-INF	0
bin	138.926	0
bin	138.95933333333	0
bin	138.99266666667	0
bin	139.026	0
bin	139.05933333333	0
bin	139.09266666667	0
bin	139.126	0
bin	139.15933333333	0
bin	139.19266666667	0
bin	139.226	0
bin	139.25933333333	0
bin	139.29266666667	0
bin	139.326	0
bin	139.35933333333	0
bin	139.39266666667	0
bin	139.426	1
bin	139.45933333333	0
bin	139.49266666667	0
bin	139.526	0
bin	139.55933333333	0
bin	139.59266666667	0
bin	139.626	0
bin	139.65933333333	0
bin	139.69266666667	0
bin	139.726	0
bin	139.75933333333	0
bin	139.79266666667	0
bin	139.826	0
bin	139.85933333333	0
bin	139.89266666667	0
bin	139.926	0
statistic RandomGeometricGraph.rgnv[15] 	arrivalPerc:histogram
field count 1
field mean 1
field stddev nan
field sum 1
field sqrsum 1
field min 1
field max 1
attr interpolationmode  none
attr source  count(arrival)
attr title  "arrival perc, histogram"
bin	-INF	0
bin	0	0
bin	1	1
bin	2	0
statistic RandomGeometricGraph.rgnv[16] 	arrivalTime:histogram
field count 1
field mean 278.32
field stddev nan
field sum 278.32
field sqrsum 77462.0224
field min 278.32
field max 278.32
attr interpolationmode  none
attr source  arrivalTime
attr title  "arrival time, histogram"
bin	-INF	0
bin	277.82	0
bin	277.85333333333	0
bin	277.88666666667	0
bin	277.92	0
bin	277.95333333333	0
bin	277.98666666667	0
bin	278.02	0
bin	278.05333333333	0
bin	278.08666666667	0
bin	278.12	0
bin	278.15333333333	0
bin	278.18666666667	0
bin	278.22	0
bin	278.25333333333	0
bin	278.28666666667	0
bin	278.32	1
bin	278.35333333333	0
bin	278.38666666667	0
bin	278.42	0
bin	278.45333333333	0
bin	278.48666666667	0
bin	278.52	0
bin	278.55333333333	0
bin	278.58666666667	0
bin	278.62	0
bin	278.65333333333	0
bin	278.68666666667	0
bin	278.72	0
bin	278.75333333333	0
bin	278.78666666667	0
bin	278.82	0
statistic RandomGeometricGraph.rgnv[16] 	arrivalPerc:histogram
field count 1
field mean 1
field stddev nan
field sum 1
field sqrsum 1
field min 1
field max 1
attr interpolationmode  none
attr source  count(arrival)
attr title  "arrival perc, histogram"
bin	-INF	0
bin	0	0
bin	1	1
bin	2	0
statistic RandomGeometricGraph.rgnv[17] 	arrivalTime:histogram
field count 1
field mean 114.396
field stddev nan
field sum 114.396
field sqrsum 13086.444816
field min 114.396
field max 114.396
attr interpolationmode  none
attr source  arrivalTime
attr title  "arrival time, histogram"
bin	-INF	0
bin	113.896	0
bin	113.92933333333	0
bin	113.96266666667	0
bin	113.996	0
bin	114.02933333333	0
bin	114.06266666667	0
bin	114.096	0
bin	114.12933333333	0
bin	114.16266666667	0
bin	114.196	0
bin	114.22933333333	0
bin	114.26266666667	0
bin	114.296	0
bin	114.32933333333	0
bin	114.36266666667	0
bin	114.396	1
bin	114.42933333333	0
bin	114.46266666667	0
bin	114.496	0
bin	114.52933333333	0
bin	114.56266666667	0
bin	114.596	0
bin	114.62933333333	0
bin	114.66266666667	0
bin	114.696	0
bin	114.72933333333	0
bin	114.76266666667	0
bin	114.796	0
bin	114.82933333333	0
bin	114.86266666667	0
bin	114.896	0
statistic RandomGeometricGraph.rgnv[17] 	arrivalPerc:histogram
field count 1
field mean 1
field stddev nan
field sum 1
field sqrsum 1
field min 1
field max 1
attr interpolationmode  none
attr source  count(arrival)
attr title  "arrival perc, histogram"
bin	-INF	0
bin	0	0
bin	1	1
bin	2	0
statistic RandomGeometricGraph.rgnv[18] 	arrivalTime:histogram
field count 1
field mean 37.703
field stddev nan
field sum 37.703
field sqrsum 1421.516209
field min 37.703
field max 37.703
attr interpolationmode  none
attr source  arrivalTime
attr title  "arrival time, histogram"
bin	-INF	0
bin	37.203	0
bin	37.236333333333	0
bin	37.269666666667	0
bin	37.303	0
bin	37.336333333333	0
bin	37.369666666667	0
bin	37.403	0
bin	37.436333333333	0
bin	37.469666666667	0
bin	37.503	0
bin	37.536333333333	0
bin	37.569666666667	0
bin	37.603	0
bin	37.636333333333	0
bin	37.669666666667	0
bin	37.703	1
bin	37.736333333333	0
bin	37.769666666667	0
bin	37.803	0
bin	37.836333333333	0
bin	37.869666666667	0
bin	37.903	0
bin	37.936333333333	0
bin	37.969666666667	0
bin	38.003	0
bin	38.036333333333	0
bin	38.069666666667	0
bin	38.103	0
bin	38.136333333333	0
bin	38.169666666667	0
bin	38.203	0
statistic RandomGeometricGraph.rgnv[18] 	arrivalPerc:histogram
field count 1
field mean 1
field stddev nan
field sum 1
field sqrsum 1
field min 1
field max 1
attr interpolationmode  none
attr source  count(arrival)
attr title  "arrival perc, histogram"
bin	-INF	0
bin	0	0
bin	1	1
bin	2	0
statistic RandomGeometricGraph.rgnv[19] 	arrivalTime:histogram
field count 1
field mean 97.185
field stddev nan
field sum 97.185
field sqrsum 9444.924225
field min 97.185
field max 97.185
attr interpolationmode  none
attr source  arrivalTime
attr title  "arrival time, histogram"
bin	-INF	0
bin	96.685	0
bin	96.718333333333	0
bin	96.751666666667	0
bin	96.785	0
bin	96.818333333333	0
bin	96.851666666667	0
bin	96.885	0
bin	96.918333333333	0
bin	96.951666666667	0
bin	96.985	0
bin	97.018333333333	0
bin	97.051666666667	0
bin	97.085	0
bin	97.118333333333	0
bin	97.151666666667	0
bin	97.185	1
bin	97.218333333333	0
bin	97.251666666667	0
bin	97.285	0
bin	97.318333333333	0
bin	97.351666666667	0
bin	97.385	0
bin	97.418333333333	0
bin	97.451666666667	0
bin	97.485	0
bin	97.518333333333	0
bin	97.551666666667	0
bin	97.585	0
bin	97.618333333333	0
bin	97.651666666667	0
bin	97.685	0
statistic RandomGeometricGraph.rgnv[19] 	arrivalPerc:histogram
field count 1
field mean 1
field stddev nan
field sum 1
field sqrsum 1
field min 1
field max 1
attr interpolationmode  none
attr source  count(arrival)
attr title  "arrival perc, histogram"
bin	-INF	0
bin	0	0
bin	1	1
bin	2	0
statistic RandomGeometricGraph.rgnv[20] 	arrivalTime:histogram
field count 1
field mean 67.165
field stddev nan
field sum 67.165
field sqrsum 4511.137225
field min 67.165
field max 67.165
attr interpolationmode  none
attr source  arrivalTime
attr title  "arrival time, histogram"
bin	-INF	0
bin	66.665	0
bin	66.698333333333	0
bin	66.731666666667	0
bin	66.765	0
bin	66.798333333333	0
bin	66.831666666667	0
bin	66.865	0
bin	66.898333333333	0
bin	66.931666666667	0
bin	66.965	0
bin	66.998333333333	0
bin	67.031666666667	0
bin	67.065	0
bin	67.098333333333	0
bin	67.131666666667	0
bin	67.165	1
bin	67.198333333333	0
bin	67.231666666667	0
bin	67.265	0
bin	67.298333333333	0
bin	67.331666666667	0
bin	67.365	0
bin	67.398333333333	0
bin	67.431666666667	0
bin	67.465	0
bin	67.498333333333	0
bin	67.531666666667	0
bin	67.565	0
bin	67.598333333333	0
bin	67.631666666667	0
bin	67.665	0
statistic RandomGeometricGraph.rgnv[20] 	arrivalPerc:histogram
field count 1
field mean 1
field stddev nan
field sum 1
field sqrsum 1
field min 1
field max 1
attr interpolationmode  none
attr source  count(arrival)
attr title  "arrival perc, histogram"
bin	-INF	0
bin	0	0
bin	1	1
bin	2	0
statistic RandomGeometricGraph.rgnv[21] 	arrivalTime:histogram
field count 1
field mean 203.868
field stddev nan
field sum 203.868
field sqrsum 41562.161424
field min 203.868
field max 203.868
attr interpolationmode  none
attr source  arrivalTime
attr title  "arrival time, histogram"
bin	-INF	0
bin	203.368	0
bin	203.40133333333	0
bin	203.43466666667	0
bin	203.468	0
bin	203.50133333333	0
bin	203.53466666667	0
bin	203.568	0
bin	203.60133333333	0
bin	203.63466666667	0
bin	203.668	0
bin	203.70133333333	0
bin	203.73466666667	0
bin	203.768	0
bin	203.80133333333	0
bin	203.83466666667	0
bin	203.868	1
bin	203.90133333333	0
bin	203.93466666667	0
bin	203.968	0
bin	204.00133333333	0
bin	204.03466666667	0
bin	204.068	0
bin	204.10133333333	0
bin	204.13466666667	0
bin	204.168	0
bin	204.20133333333	0
bin	204.23466666667	0
bin	204.268	0
bin	204.30133333333	0
bin	204.33466666667	0
bin	204.368	0
statistic RandomGeometricGraph.rgnv[21] 	arrivalPerc:histogram
field count 1
field mean 1
field stddev nan
field sum 1
field sqrsum 1
field min 1
field max 1
attr interpolationmode  none
attr source  count(arrival)
attr title  "arrival perc, histogram"
bin	-INF	0
bin	0	0
bin	1	1
bin	2	0
statistic RandomGeometricGraph.rgnv[22] 	arrivalTime:histogram
field count 1
field mean 82.175
field stddev nan
field sum 82.175
field sqrsum 6752.730625
field min 82.175
field max 82.175
attr interpolationmode  none
attr source  arrivalTime
attr title  "arrival time, histogram"
bin	-INF	0
bin	81.675	0
bin	81.708333333333	0
bin	81.741666666667	0
bin	81.775	0
bin	81.808333333333	0
bin	81.841666666667	0
bin	81.875	0
bin	81.908333333333	0
bin	81.941666666667	0
bin	81.975	0
bin	82.008333333333	0
bin	82.041666666667	0
bin	82.075	0
bin	82.108333333333	0
bin	82.141666666667	0
bin	82.175	1
bin	82.208333333333	0
bin	82.241666666667	0
bin	82.275	0
bin	82.308333333333	0
bin	82.341666666667	0
bin	82.375	0
bin	82.408333333333	0
bin	82.441666666667	0
bin	82.475	0
bin	82.508333333333	0
bin	82.541666666667	0
bin	82.575	0
bin	82.608333333333	0
bin	82.641666666667	0
bin	82.675	0
statistic RandomGeometricGraph.rgnv[22] 	arrivalPerc:histogram
field count 1
field mean 1
field stddev nan
field sum 1
field sqrsum 1
field min 1
field max 1
attr interpolationmode  none
attr source  count(arrival)
attr title  "arrival perc, histogram"
bin	-INF	0
bin	0	0
bin	1	1
bin	2	0
statistic RandomGeometricGraph.rgnv[23] 	arrivalTime:histogram
field count 1
field mean 67.155
field stddev nan
field sum 67.155
field sqrsum 4509.794025
field min 67.155
field max 67.155
attr interpolationmode  none
attr source  arrivalTime
attr title  "arrival time, histogram"
bin	-INF	0
bin	66.655	0
bin	66.688333333333	0
bin	66.721666666667	0
bin	66.755	0
bin	66.788333333333	0
bin	66.821666666667	0
bin	66.855	0
bin	66.888333333333	0
bin	66.921666666667	0
bin	66.955	0
bin	66.988333333333	0
bin	67.021666666667	0
bin	67.055	0
bin	67.088333333333	0
bin	67.121666666667	0
bin	67.155	1
bin	67.188333333333	0
bin	67.221666666667	0
bin	67.255	0
bin	67.288333333333	0
bin	67.321666666667	0
bin	67.355	0
bin	67.388333333333	0
bin	67.421666666667	0
bin	67.455	0
bin	67.488333333333	0
bin	67.521666666667	0
bin	67.555	0
bin	67.588333333333	0
bin	67.621666666667	0
bin	67.655	0
statistic RandomGeometricGraph.rgnv[23] 	arrivalPerc:histogram
field count 1
field mean 1
field stddev nan
field sum 1
field sqrsum 1
field min 1
field max 1
attr interpolationmode  none
attr source  count(arrival)
attr title  "arrival perc, histogram"
bin	-INF	0
bin	0	0
bin	1	1
bin	2	0
statistic RandomGeometricGraph.rgnv[24] 	arrivalTime:histogram
field count 1
field mean 82.175
field stddev nan
field sum 82.175
field sqrsum 6752.730625
field min 82.175
field max 82.175
attr interpolationmode  none
attr source  arrivalTime
attr title  "arrival time, histogram"
bin	-INF	0
bin	81.675	0
bin	81.708333333333	0
bin	81.741666666667	0
bin	81.775	0
bin	81.808333333333	0
bin	81.841666666667	0
bin	81.875	0
bin	81.908333333333	0
bin	81.941666666667	0
bin	81.975	0
bin	82.008333333333	0
bin	82.041666666667	0
bin	82.075	0
bin	82.108333333333	0
bin	82.141666666667	0
bin	82.175	1
bin	82.208333333333	0
bin	82.241666666667	0
bin	82.275	0
bin	82.308333333333	0
bin	82.341666666667	0
bin	82.375	0
bin	82.408333333333	0
bin	82.441666666667	0
bin	82.475	0
bin	82.508333333333	0
bin	82.541666666667	0
bin	82.575	0
bin	82.608333333333	0
bin	82.641666666667	0
bin	82.675	0
statistic RandomGeometricGraph.rgnv[24] 	arrivalPerc:histogram
field count 1
field mean 1
field stddev nan
field sum 1
field sqrsum 1
field min 1
field max 1
attr interpolationmode  none
attr source  count(arrival)
attr title  "arrival perc, histogram"
bin	-INF	0
bin	0	0
bin	1	1
bin	2	0
statistic RandomGeometricGraph.rgnv[25] 	arrivalTime:histogram
field count 1
field mean 42.713
field stddev nan
field sum 42.713
field sqrsum 1824.400369
field min 42.713
field max 42.713
attr interpolationmode  none
attr source  arrivalTime
attr title  "arrival time, histogram"
bin	-INF	0
bin	42.213	0
bin	42.246333333333	0
bin	42.279666666667	0
bin	42.313	0
bin	42.346333333333	0
bin	42.379666666667	0
bin	42.413	0
bin	42.446333333333	0
bin	42.479666666667	0
bin	42.513	0
bin	42.546333333333	0
bin	42.579666666667	0
bin	42.613	0
bin	42.646333333333	0
bin	42.679666666667	0
bin	42.713	1
bin	42.746333333333	0
bin	42.779666666667	0
bin	42.813	0
bin	42.846333333333	0
bin	42.879666666667	0
bin	42.913	0
bin	42.946333333333	0
bin	42.979666666667	0
bin	43.013	0
bin	43.046333333333	0
bin	43.079666666667	0
bin	43.113	0
bin	43.146333333333	0
bin	43.179666666667	0
bin	43.213	0
statistic RandomGeometricGraph.rgnv[25] 	arrivalPerc:histogram
field count 1
field mean 1
field stddev nan
field sum 1
field sqrsum 1
field min 1
field max 1
attr interpolationmode  none
attr source  count(arrival)
attr title  "arrival perc, histogram"
bin	-INF	0
bin	0	0
bin	1	1
bin	2	0
statistic RandomGeometricGraph.rgnv[26] 	arrivalTime:histogram
field count 1
field mean 129.406
field stddev nan
field sum 129.406
field sqrsum 16745.912836
field min 129.406
field max 129.406
attr interpolationmode  none
attr source  arrivalTime
attr title  "arrival time, histogram"
bin	-INF	0
bin	128.906	0
bin	128.93933333333	0
bin	128.97266666667	0
bin	129.006	0
bin	129.03933333333	0
bin	129.07266666667	0
bin	129.106	0
bin	129.13933333333	0
bin	129.17266666667	0
bin	129.206	0
bin	129.23933333333	0
bin	129.27266666667	0
bin	129.306	0
bin	129.33933333333	0
bin	129.37266666667	0
bin	129.406	1
bin	129.43933333333	0
bin	129.47266666667	0
bin	129.506	0
bin	129.53933333333	0
bin	129.57266666667	0
bin	129.606	0
bin	129.63933333333	0
bin	129.67266666667	0
bin	129.706	0
bin	129.73933333333	0
bin	129.77266666667	0
bin	129.806	0
bin	129.83933333333	0
bin	129.87266666667	0
bin	129.906	0
statistic RandomGeometricGraph.rgnv[26] 	arrivalPerc:histogram
field count 1
field mean 1
field stddev nan
field sum 1
field sqrsum 1
field min 1
field max 1
attr interpolationmode  none
attr source  count(arrival)
attr title  "arrival perc, histogram"
bin	-INF	0
bin	0	0
bin	1	1
bin	2	0
statistic RandomGeometricGraph.rgnv[27] 	arrivalTime:histogram
field count 1
field mean 64.954
field stddev nan
field sum 64.954
field sqrsum 4219.022116
field min 64.954
field max 64.954
attr interpolationmode  none
attr source  arrivalTime
attr title  "arrival time, histogram"
bin	-INF	0
bin	64.454	0
bin	64.487333333333	0
bin	64.520666666667	0
bin	64.554	0
bin	64.587333333333	0
bin	64.620666666667	0
bin	64.654	0
bin	64.687333333333	0
bin	64.720666666667	0
bin	64.754	0
bin	64.787333333333	0
bin	64.820666666667	0
bin	64.854	0
bin	64.887333333333	0
bin	64.920666666667	0
bin	64.954	1
bin	64.987333333333	0
bin	65.020666666667	0
bin	65.054	0
bin	65.087333333333	0
bin	65.120666666667	0
bin	65.154	0
bin	65.187333333333	0
bin	65.220666666667	0
bin	65.254	0
bin	65.287333333333	0
bin	65.320666666667	0
bin	65.354	0
bin	65.387333333333	0
bin	65.420666666667	0
bin	65.454	0
statistic RandomGeometricGraph.rgnv[27] 	arrivalPerc:histogram
field count 1
field mean 1
field stddev nan
field sum 1
field sqrsum 1
field min 1
field max 1
attr interpolationmode  none
attr source  count(arrival)
attr title  "arrival perc, histogram"
bin	-INF	0
bin	0	0
bin	1	1
bin	2	0
statistic RandomGeometricGraph.rgnv[28] 	arrivalTime:histogram
field count 1
field mean 303.34
field stddev nan
field sum 303.34
field sqrsum 92015.1556
field min 303.34
field max 303.34
attr interpolationmode  none
attr source  arrivalTime
attr title  "arrival time, histogram"
bin	-INF	0
bin	302.84	0
bin	302.87333333333	0
bin	302.90666666667	0
bin	302.94	0
bin	302.97333333333	0
bin	303.00666666667	0
bin	303.04	0
bin	303.07333333333	0
bin	303.10666666667	0
bin	303.14	0
bin	303.17333333333	0
bin	303.20666666667	0
bin	303.24	0
bin	303.27333333333	0
bin	303.30666666667	0
bin	303.34	1
bin	303.37333333333	0
bin	303.40666666667	0
bin	303.44	0
bin	303.47333333333	0
bin	303.50666666667	0
bin	303.54	0
bin	303.57333333333	0
bin	303.60666666667	0
bin	303.64	0
bin	303.67333333333	0
bin	303.70666666667	0
bin	303.74	0
bin	303.77333333333	0
bin	303.80666666667	0
bin	303.84	0
statistic RandomGeometricGraph.rgnv[28] 	arrivalPerc:histogram
field count 1
field mean 1
field stddev nan
field sum 1
field sqrsum 1
field min 1
field max 1
attr interpolationmode  none
attr source  count(arrival)
attr title  "arrival perc, histogram"
bin	-INF	0
bin	0	0
bin	1	1
bin	2	0
statistic RandomGeometricGraph.rgnv[29] 	arrivalTime:histogram
field count 1
field mean 176.657
field stddev nan
field sum 176.657
field sqrsum 31207.695649
field min 176.657
field max 176.657
attr interpolationmode  none
attr source  arrivalTime
attr title  "arrival time, histogram"
bin	-INF	0
bin	176.157	0
bin	176.19033333333	0
bin	176.22366666667	0
bin	176.257	0
bin	176.29033333333	0
bin	176.32366666667	0
bin	176.357	0
bin	176.39033333333	0
bin	176.42366666667	0
bin	176.457	0
bin	176.49033333333	0
bin	176.52366666667	0
bin	176.557	0
bin	176.59033333333	0
bin	176.62366666667	0
bin	176.657	1
bin	176.69033333333	0
bin	176.72366666667	0
bin	176.757	0
bin	176.79033333333	0
bin	176.82366666667	0
bin	176.857	0
bin	176.89033333333	0
bin	176.92366666667	0
bin	176.957	0
bin	176.99033333333	0
bin	177.02366666667	0
bin	177.057	0
bin	177.09033333333	0
bin	177.12366666667	0
bin	177.157	0
statistic RandomGeometricGraph.rgnv[29] 	arrivalPerc:histogram
field count 1
field mean 1
field stddev nan
field sum 1
field sqrsum 1
field min 1
field max 1
attr interpolationmode  none
attr source  count(arrival)
attr title  "arrival perc, histogram"
bin	-INF	0
bin	0	0
bin	1	1
bin	2	0
statistic RandomGeometricGraph.rgnv[30] 	arrivalTime:histogram
field count 1
field mean 87.175
field stddev nan
field sum 87.175
field sqrsum 7599.480625
field min 87.175
field max 87.175
attr interpolationmode  none
attr source  arrivalTime
attr title  "arrival time, histogram"
bin	-INF	0
bin	86.675	0
bin	86.708333333333	0
bin	86.741666666667	0
bin	86.775	0
bin	86.808333333333	0
bin	86.841666666667	0
bin	86.875	0
bin	86.908333333333	0
bin	86.941666666667	0
bin	86.975	0
bin	87.008333333333	0
bin	87.041666666667	0
bin	87.075	0
bin	87.108333333333	0
bin	87.141666666667	0
bin	87.175	1
bin	87.208333333333	0
bin	87.241666666667	0
bin	87.275	0
bin	87.308333333333	0
bin	87.341666666667	0
bin	87.375	0
bin	87.408333333333	0
bin	87.441666666667	0
bin	87.475	0
bin	87.508333333333	0
bin	87.541666666667	0
bin	87.575	0
bin	87.608333333333	0
bin	87.641666666667	0
bin	87.675	0
statistic RandomGeometricGraph.rgnv[30] 	arrivalPerc:histogram
field count 1
field mean 1
field stddev nan
field sum 1
field sqrsum 1
field min 1
field max 1
attr interpolationmode  none
attr source  count(arrival)
attr title  "arrival perc, histogram"
bin	-INF	0
bin	0	0
bin	1	1
bin	2	0
statistic RandomGeometricGraph.rgnv[31] 	arrivalTime:histogram
field count 1
field mean 37.693
field stddev nan
field sum 37.693
field sqrsum 1420.762249
field min 37.693
field max 37.693
attr interpolationmode  none
attr source  arrivalTime
attr title  "arrival time, histogram"
bin	-INF	0
bin	37.193	0
bin	37.226333333333	0
bin	37.259666666667	0
bin	37.293	0
bin	37.326333333333	0
bin	37.359666666667	0
bin	37.393	0
bin	37.426333333333	0
bin	37.459666666667	0
bin	37.493	0
bin	37.526333333333	0
bin	37.559666666667	0
bin	37.593	0
bin	37.626333333333	0
bin	37.659666666667	0
bin	37.693	1
bin	37.726333333333	0
bin	37.759666666667	0
bin	37.793	0
bin	37.826333333333	0
bin	37.859666666667	0
bin	37.893	0
bin	37.926333333333	0
bin	37.959666666667	0
bin	37.993	0
bin	38.026333333333	0
bin	38.059666666667	0
bin	38.093	0
bin	38.126333333333	0
bin	38.159666666667	0
bin	38.193	0
statistic RandomGeometricGraph.rgnv[31] 	arrivalPerc:histogram
field count 1
field mean 1
field stddev nan
field sum 1
field sqrsum 1
field min 1
field max 1
attr interpolationmode  none
attr source  count(arrival)
attr title  "arrival perc, histogram"
bin	-INF	0
bin	0	0
bin	1	1
bin	2	0
statistic RandomGeometricGraph.rgnv[32] 	arrivalTime:histogram
field count 1
field mean 82.175
field stddev nan
field sum 82.175
field sqrsum 6752.730625
field min 82.175
field max 82.175
attr interpolationmode  none
attr source  arrivalTime
attr title  "arrival time, histogram"
bin	-INF	0
bin	81.675	0
bin	81.708333333333	0
bin	81.741666666667	0
bin	81.775	0
bin	81.808333333333	0
bin	81.841666666667	0
bin	81.875	0
bin	81.908333333333	0
bin	81.941666666667	0
bin	81.975	0
bin	82.008333333333	0
bin	82.041666666667	0
bin	82.075	0
bin	82.108333333333	0
bin	82.141666666667	0
bin	82.175	1
bin	82.208333333333	0
bin	82.241666666667	0
bin	82.275	0
bin	82.308333333333	0
bin	82.341666666667	0
bin	82.375	0
bin	82.408333333333	0
bin	82.441666666667	0
bin	82.475	0
bin	82.508333333333	0
bin	82.541666666667	0
bin	82.575	0
bin	82.608333333333	0
bin	82.641666666667	0
bin	82.675	0
statistic RandomGeometricGraph.rgnv[32] 	arrivalPerc:histogram
field count 1
field mean 1
field stddev nan
field sum 1
field sqrsum 1
field min 1
field max 1
attr interpolationmode  none
attr source  count(arrival)
attr title  "arrival perc, histogram"
bin	-INF	0
bin	0	0
bin	1	1
bin	2	0
statistic RandomGeometricGraph.rgnv[33] 	arrivalTime:histogram
field count 1
field mean 271.139
field stddev nan
field sum 271.139
field sqrsum 73516.357321
field min 271.139
field max 271.139
attr interpolationmode  none
attr source  arrivalTime
attr title  "arrival time, histogram"
bin	-INF	0
bin	270.639	0
bin	270.67233333333	0
bin	270.70566666667	0
bin	270.739	0
bin	270.77233333333	0
bin	270.80566666667	0
bin	270.839	0
bin	270.87233333333	0
bin	270.90566666667	0
bin	270.939	0
bin	270.97233333333	0
bin	271.00566666667	0
bin	271.039	0
bin	271.07233333333	0
bin	271.10566666667	0
bin	271.139	1
bin	271.17233333333	0
bin	271.20566666667	0
bin	271.239	0
bin	271.27233333333	0
bin	271.30566666667	0
bin	271.339	0
bin	271.37233333333	0
bin	271.40566666667	0
bin	271.439	0
bin	271.47233333333	0
bin	271.50566666667	0
bin	271.539	0
bin	271.57233333333	0
bin	271.60566666667	0
bin	271.639	0
statistic RandomGeometricGraph.rgnv[33] 	arrivalPerc:histogram
field count 1
field mean 1
field stddev nan
field sum 1
field sqrsum 1
field min 1
field max 1
attr interpolationmode  none
attr source  count(arrival)
attr title  "arrival perc, histogram"
bin	-INF	0
bin	0	0
bin	1	1
bin	2	0
statistic RandomGeometricGraph.rgnv[34] 	arrivalTime:histogram
field count 1
field mean 266.129
field stddev nan
field sum 266.129
field sqrsum 70824.644641
field min 266.129
field max 266.129
attr interpolationmode  none
attr source  arrivalTime
attr title  "arrival time, histogram"
bin	-INF	0
bin	265.629	0
bin	265.66233333333	0
bin	265.69566666667	0
bin	265.729	0
bin	265.76233333333	0
bin	265.79566666667	0
bin	265.829	0
bin	265.86233333333	0
bin	265.89566666667	0
bin	265.929	0
bin	265.96233333333	0
bin	265.99566666667	0
bin	266.029	0
bin	266.06233333333	0
bin	266.09566666667	0
bin	266.129	1
bin	266.16233333333	0
bin	266.19566666667	0
bin	266.229	0
bin	266.26233333333	0
bin	266.29566666667	0
bin	266.329	0
bin	266.36233333333	0
bin	266.39566666667	0
bin	266.429	0
bin	266.46233333333	0
bin	266.49566666667	0
bin	266.529	0
bin	266.56233333333	0
bin	266.59566666667	0
bin	266.629	0
statistic RandomGeometricGraph.rgnv[34] 	arrivalPerc:histogram
field count 1
field mean 1
field stddev nan
field sum 1
field sqrsum 1
field min 1
field max 1
attr interpolationmode  none
attr source  count(arrival)
attr title  "arrival perc, histogram"
bin	-INF	0
bin	0	0
bin	1	1
bin	2	0
statistic RandomGeometricGraph.rgnv[35] 	arrivalTime:histogram
field count 1
field mean 246.099
field stddev nan
field sum 246.099
field sqrsum 60564.717801
field min 246.099
field max 246.099
attr interpolationmode  none
attr source  arrivalTime
attr title  "arrival time, histogram"
bin	-INF	0
bin	245.599	0
bin	245.63233333333	0
bin	245.66566666667	0
bin	245.699	0
bin	245.73233333333	0
bin	245.76566666667	0
bin	245.799	0
bin	245.83233333333	0
bin	245.86566666667	0
bin	245.899	0
bin	245.93233333333	0
bin	245.96566666667	0
bin	245.999	0
bin	246.03233333333	0
bin	246.06566666667	0
bin	246.099	1
bin	246.13233333333	0
bin	246.16566666667	0
bin	246.199	0
bin	246.23233333333	0
bin	246.26566666667	0
bin	246.299	0
bin	246.33233333333	0
bin	246.36566666667	0
bin	246.399	0
bin	246.43233333333	0
bin	246.46566666667	0
bin	246.499	0
bin	246.53233333333	0
bin	246.56566666667	0
bin	246.599	0
statistic RandomGeometricGraph.rgnv[35] 	arrivalPerc:histogram
field count 1
field mean 1
field stddev nan
field sum 1
field sqrsum 1
field min 1
field max 1
attr interpolationmode  none
attr source  count(arrival)
attr title  "arrival perc, histogram"
bin	-INF	0
bin	0	0
bin	1	1
bin	2	0
statistic RandomGeometricGraph.rgnv[36] 	arrivalTime:histogram
field count 1
field mean 156.627
field stddev nan
field sum 156.627
field sqrsum 24532.017129
field min 156.627
field max 156.627
attr interpolationmode  none
attr source  arrivalTime
attr title  "arrival time, histogram"
bin	-INF	0
bin	156.127	0
bin	156.16033333333	0
bin	156.19366666667	0
bin	156.227	0
bin	156.26033333333	0
bin	156.29366666667	0
bin	156.327	0
bin	156.36033333333	0
bin	156.39366666667	0
bin	156.427	0
bin	156.46033333333	0
bin	156.49366666667	0
bin	156.527	0
bin	156.56033333333	0
bin	156.59366666667	0
bin	156.627	1
bin	156.66033333333	0
bin	156.69366666667	0
bin	156.727	0
bin	156.76033333333	0
bin	156.79366666667	0
bin	156.827	0
bin	156.86033333333	0
bin	156.89366666667	0
bin	156.927	0
bin	156.96033333333	0
bin	156.99366666667	0
bin	157.027	0
bin	157.06033333333	0
bin	157.09366666667	0
bin	157.127	0
statistic RandomGeometricGraph.rgnv[36] 	arrivalPerc:histogram
field count 1
field mean 1
field stddev nan
field sum 1
field sqrsum 1
field min 1
field max 1
attr interpolationmode  none
attr source  count(arrival)
attr title  "arrival perc, histogram"
bin	-INF	0
bin	0	0
bin	1	1
bin	2	0
statistic RandomGeometricGraph.rgnv[37] 	arrivalTime:histogram
field count 1
field mean 228.898
field stddev nan
field sum 228.898
field sqrsum 52394.294404
field min 228.898
field max 228.898
attr interpolationmode  none
attr source  arrivalTime
attr title  "arrival time, histogram"
bin	-INF	0
bin	228.398	0
bin	228.43133333333	0
bin	228.46466666667	0
bin	228.498	0
bin	228.53133333333	0
bin	228.56466666667	0
bin	228.598	0
bin	228.63133333333	0
bin	228.66466666667	0
bin	228.698	0
bin	228.73133333333	0
bin	228.76466666667	0
bin	228.798	0
bin	228.83133333333	0
bin	228.86466666667	0
bin	228.898	1
bin	228.93133333333	0
bin	228.96466666667	0
bin	228.998	0
bin	229.03133333333	0
bin	229.06466666667	0
bin	229.098	0
bin	229.13133333333	0
bin	229.16466666667	0
bin	229.198	0
bin	229.23133333333	0
bin	229.26466666667	0
bin	229.298	0
bin	229.33133333333	0
bin	229.36466666667	0
bin	229.398	0
statistic RandomGeometricGraph.rgnv[37] 	arrivalPerc:histogram
field count 1
field mean 1
field stddev nan
field sum 1
field sqrsum 1
field min 1
field max 1
attr interpolationmode  none
attr source  count(arrival)
attr title  "arrival perc, histogram"
bin	-INF	0
bin	0	0
bin	1	1
bin	2	0
statistic RandomGeometricGraph.rgnv[38] 	arrivalTime:histogram
field count 1
field mean 335.571
field stddev nan
field sum 335.571
field sqrsum 112607.896041
field min 335.571
field max 335.571
attr interpolationmode  none
attr source  arrivalTime
attr title  "arrival time, histogram"
bin	-INF	0
bin	335.071	0
bin	335.10433333333	0
bin	335.13766666667	0
bin	335.171	0
bin	335.20433333333	0
bin	335.23766666667	0
bin	335.271	0
bin	335.30433333333	0
bin	335.33766666667	0
bin	335.371	0
bin	335.40433333333	0
bin	335.43766666667	0
bin	335.471	0
bin	335.50433333333	0
bin	335.53766666667	0
bin	335.571	1
bin	335.60433333333	0
bin	335.63766666667	0
bin	335.671	0
bin	335.70433333333	0
bin	335.73766666667	0
bin	335.771	0
bin	335.80433333333	0
bin	335.83766666667	0
bin	335.871	0
bin	335.90433333333	0
bin	335.93766666667	0
bin	335.971	0
bin	336.00433333333	0
bin	336.03766666667	0
bin	336.071	0
statistic RandomGeometricGraph.rgnv[38] 	arrivalPerc:histogram
field count 1
field mean 1
field stddev nan
field sum 1
field sqrsum 1
field min 1
field max 1
attr interpolationmode  none
attr source  count(arrival)
attr title  "arrival perc, histogram"
bin	-INF	0
bin	0	0
bin	1	1
bin	2	0
statistic RandomGeometricGraph.rgnv[39] 	arrivalTime:histogram
field count 1
field mean 161.637
field stddev nan
field sum 161.637
field sqrsum 26126.519769
field min 161.637
field max 161.637
attr interpolationmode  none
attr source  arrivalTime
attr title  "arrival time, histogram"
bin	-INF	0
bin	161.137	0
bin	161.17033333333	0
bin	161.20366666667	0
bin	161.237	0
bin	161.27033333333	0
bin	161.30366666667	0
bin	161.337	0
bin	161.37033333333	0
bin	161.40366666667	0
bin	161.437	0
bin	161.47033333333	0
bin	161.50366666667	0
bin	161.537	0
bin	161.57033333333	0
bin	161.60366666667	0
bin	161.637	1
bin	161.67033333333	0
bin	161.70366666667	0
bin	161.737	0
bin	161.77033333333	0
bin	161.80366666667	0
bin	161.837	0
bin	161.87033333333	0
bin	161.90366666667	0
bin	161.937	0
bin	161.97033333333	0
bin	162.00366666667	0
bin	162.037	0
bin	162.07033333333	0
bin	162.10366666667	0
bin	162.137	0
statistic RandomGeometricGraph.rgnv[39] 	arrivalPerc:histogram
field count 1
field mean 1
field stddev nan
field sum 1
field sqrsum 1
field min 1
field max 1
attr interpolationmode  none
attr source  count(arrival)
attr title  "arrival perc, histogram"
bin	-INF	0
bin	0	0
bin	1	1
bin	2	0
statistic RandomGeometricGraph.rgnv[40] 	arrivalTime:histogram
field count 1
field mean 171.647
field stddev nan
field sum 171.647
field sqrsum 29462.692609
field min 171.647
field max 171.647
attr interpolationmode  none
attr source  arrivalTime
attr title  "arrival time, histogram"
bin	-INF	0
bin	171.147	0
bin	171.18033333333	0
bin	171.21366666667	0
bin	171.247	0
bin	171.28033333333	0
bin	171.31366666667	0
bin	171.347	0
bin	171.38033333333	0
bin	171.41366666667	0
bin	171.447	0
bin	171.48033333333	0
bin	171.51366666667	0
bin	171.547	0
bin	171.58033333333	0
bin	171.61366666667	0
bin	171.647	1
bin	171.68033333333	0
bin	171.71366666667	0
bin	171.747	0
bin	171.78033333333	0
bin	171.81366666667	0
bin	171.847	0
bin	171.88033333333	0
bin	171.91366666667	0
bin	171.947	0
bin	171.98033333333	0
bin	172.01366666667	0
bin	172.047	0
bin	172.08033333333	0
bin	172.11366666667	0
bin	172.147	0
statistic RandomGeometricGraph.rgnv[40] 	arrivalPerc:histogram
field count 1
field mean 1
field stddev nan
field sum 1
field sqrsum 1
field min 1
field max 1
attr interpolationmode  none
attr source  count(arrival)
attr title  "arrival perc, histogram"
bin	-INF	0
bin	0	0
bin	1	1
bin	2	0
statistic RandomGeometricGraph.rgnv[41] 	arrivalTime:histogram
field count 1
field mean 293.34
field stddev nan
field sum 293.34
field sqrsum 86048.3556
field min 293.34
field max 293.34
attr interpolationmode  none
attr source  arrivalTime
attr title  "arrival time, histogram"
bin	-INF	0
bin	292.84	0
bin	292.87333333333	0
bin	292.90666666667	0
bin	292.94	0
bin	292.97333333333	0
bin	293.00666666667	0
bin	293.04	0
bin	293.07333333333	0
bin	293.10666666667	0
bin	293.14	0
bin	293.17333333333	0
bin	293.20666666667	0
bin	293.24	0
bin	293.27333333333	0
bin	293.30666666667	0
bin	293.34	1
bin	293.37333333333	0
bin	293.40666666667	0
bin	293.44	0
bin	293.47333333333	0
bin	293.50666666667	0
bin	293.54	0
bin	293.57333333333	0
bin	293.60666666667	0
bin	293.64	0
bin	293.67333333333	0
bin	293.70666666667	0
bin	293.74	0
bin	293.77333333333	0
bin	293.80666666667	0
bin	293.84	0
statistic RandomGeometricGraph.rgnv[41] 	arrivalPerc:histogram
field count 1
field mean 1
field stddev nan
field sum 1
field sqrsum 1
field min 1
field max 1
attr interpolationmode  none
attr source  count(arrival)
attr title  "arrival perc, histogram"
bin	-INF	0
bin	0	0
bin	1	1
bin	2	0
statistic RandomGeometricGraph.rgnv[42] 	arrivalTime:histogram
field count 1
field mean 87.175
field stddev nan
field sum 87.175
field sqrsum 7599.480625
field min 87.175
field max 87.175
attr interpolationmode  none
attr source  arrivalTime
attr title  "arrival time, histogram"
bin	-INF	0
bin	86.675	0
bin	86.708333333333	0
bin	86.741666666667	0
bin	86.775	0
bin	86.808333333333	0
bin	86.841666666667	0
bin	86.875	0
bin	86.908333333333	0
bin	86.941666666667	0
bin	86.975	0
bin	87.008333333333	0
bin	87.041666666667	0
bin	87.075	0
bin	87.108333333333	0
bin	87.141666666667	0
bin	87.175	1
bin	87.208333333333	0
bin	87.241666666667	0
bin	87.275	0
bin	87.308333333333	0
bin	87.341666666667	0
bin	87.375	0
bin	87.408333333333	0
bin	87.441666666667	0
bin	87.475	0
bin	87.508333333333	0
bin	87.541666666667	0
bin	87.575	0
bin	87.608333333333	0
bin	87.641666666667	0
bin	87.675	0
statistic RandomGeometricGraph.rgnv[42] 	arrivalPerc:histogram
field count 1
field mean 1
field stddev nan
field sum 1
field sqrsum 1
field min 1
field max 1
attr interpolationmode  none
attr source  count(arrival)
attr title  "arrival perc, histogram"
bin	-INF	0
bin	0	0
bin	1	1
bin	2	0
statistic RandomGeometricGraph.rgnv[43] 	arrivalTime:histogram
field count 1
field mean 236.099
field stddev nan
field sum 236.099
field sqrsum 55742.737801
field min 236.099
field max 236.099
attr interpolationmode  none
attr source  arrivalTime
attr title  "arrival time, histogram"
bin	-INF	0
bin	235.599	0
bin	235.63233333333	0
bin	235.66566666667	0
bin	235.699	0
bin	235.73233333333	0
bin	235.76566666667	0
bin	235.799	0
bin	235.83233333333	0
bin	235.86566666667	0
bin	235.899	0
bin	235.93233333333	0
bin	235.96566666667	0
bin	235.999	0
bin	236.03233333333	0
bin	236.06566666667	0
bin	236.099	1
bin	236.13233333333	0
bin	236.16566666667	0
bin	236.199	0
bin	236.23233333333	0
bin	236.26566666667	0
bin	236.299	0
bin	236.33233333333	0
bin	236.36566666667	0
bin	236.399	0
bin	236.43233333333	0
bin	236.46566666667	0
bin	236.499	0
bin	236.53233333333	0
bin	236.56566666667	0
bin	236.599	0
statistic RandomGeometricGraph.rgnv[43] 	arrivalPerc:histogram
field count 1
field mean 1
field stddev nan
field sum 1
field sqrsum 1
field min 1
field max 1
attr interpolationmode  none
attr source  count(arrival)
attr title  "arrival perc, histogram"
bin	-INF	0
bin	0	0
bin	1	1
bin	2	0
statistic RandomGeometricGraph.rgnv[44] 	arrivalTime:histogram
field count 0
field mean nan
field stddev nan
field sum 0
field sqrsum 0
field min nan
field max nan
attr interpolationmode  none
attr source  arrivalTime
attr title  "arrival time, histogram"
bin	-INF	0
bin	-0.5	0
bin	-0.46666666666667	0
bin	-0.43333333333333	0
bin	-0.4	0
bin	-0.36666666666667	0
bin	-0.33333333333333	0
bin	-0.3	0
bin	-0.26666666666667	0
bin	-0.23333333333333	0
bin	-0.2	0
bin	-0.16666666666667	0
bin	-0.13333333333333	0
bin	-0.1	0
bin	-0.066666666666667	0
bin	-0.033333333333333	0
bin	0	0
bin	0.033333333333333	0
bin	0.066666666666667	0
bin	0.1	0
bin	0.13333333333333	0
bin	0.16666666666667	0
bin	0.2	0
bin	0.23333333333333	0
bin	0.26666666666667	0
bin	0.3	0
bin	0.33333333333333	0
bin	0.36666666666667	0
bin	0.4	0
bin	0.43333333333333	0
bin	0.46666666666667	0
bin	0.5	0
statistic RandomGeometricGraph.rgnv[44] 	arrivalPerc:histogram
field count 0
field mean nan
field stddev nan
field sum 0
field sqrsum 0
field min nan
field max nan
attr interpolationmode  none
attr source  count(arrival)
attr title  "arrival perc, histogram"
bin	-INF	0
bin	-0.5	0
bin	-0.46666666666667	0
bin	-0.43333333333333	0
bin	-0.4	0
bin	-0.36666666666667	0
bin	-0.33333333333333	0
bin	-0.3	0
bin	-0.26666666666667	0
bin	-0.23333333333333	0
bin	-0.2	0
bin	-0.16666666666667	0
bin	-0.13333333333333	0
bin	-0.1	0
bin	-0.066666666666667	0
bin	-0.033333333333333	0
bin	0	0
bin	0.033333333333333	0
bin	0.066666666666667	0
bin	0.1	0
bin	0.13333333333333	0
bin	0.16666666666667	0
bin	0.2	0
bin	0.23333333333333	0
bin	0.26666666666667	0
bin	0.3	0
bin	0.33333333333333	0
bin	0.36666666666667	0
bin	0.4	0
bin	0.43333333333333	0
bin	0.46666666666667	0
bin	0.5	0
statistic RandomGeometricGraph.rgnv[45] 	arrivalTime:histogram
field count 1
field mean 166.637
field stddev nan
field sum 166.637
field sqrsum 27767.889769
field min 166.637
field max 166.637
attr interpolationmode  none
attr source  arrivalTime
attr title  "arrival time, histogram"
bin	-INF	0
bin	166.137	0
bin	166.17033333333	0
bin	166.20366666667	0
bin	166.237	0
bin	166.27033333333	0
bin	166.30366666667	0
bin	166.337	0
bin	166.37033333333	0
bin	166.40366666667	0
bin	166.437	0
bin	166.47033333333	0
bin	166.50366666667	0
bin	166.537	0
bin	166.57033333333	0
bin	166.60366666667	0
bin	166.637	1
bin	166.67033333333	0
bin	166.70366666667	0
bin	166.737	0
bin	166.77033333333	0
bin	166.80366666667	0
bin	166.837	0
bin	166.87033333333	0
bin	166.90366666667	0
bin	166.937	0
bin	166.97033333333	0
bin	167.00366666667	0
bin	167.037	0
bin	167.07033333333	0
bin	167.10366666667	0
bin	167.137	0
statistic RandomGeometricGraph.rgnv[45] 	arrivalPerc:histogram
field count 1
field mean 1
field stddev nan
field sum 1
field sqrsum 1
field min 1
field max 1
attr interpolationmode  none
attr source  count(arrival)
attr title  "arrival perc, histogram"
bin	-INF	0
bin	0	0
bin	1	1
bin	2	0
statistic RandomGeometricGraph.rgnv[46] 	arrivalTime:histogram
field count 1
field mean 129.416
field stddev nan
field sum 129.416
field sqrsum 16748.501056
field min 129.416
field max 129.416
attr interpolationmode  none
attr source  arrivalTime
attr title  "arrival time, histogram"
bin	-INF	0
bin	128.916	0
bin	128.94933333333	0
bin	128.98266666667	0
bin	129.016	0
bin	129.04933333333	0
bin	129.08266666667	0
bin	129.116	0
bin	129.14933333333	0
bin	129.18266666667	0
bin	129.216	0
bin	129.24933333333	0
bin	129.28266666667	0
bin	129.316	0
bin	129.34933333333	0
bin	129.38266666667	0
bin	129.416	1
bin	129.44933333333	0
bin	129.48266666667	0
bin	129.516	0
bin	129.54933333333	0
bin	129.58266666667	0
bin	129.616	0
bin	129.64933333333	0
bin	129.68266666667	0
bin	129.716	0
bin	129.74933333333	0
bin	129.78266666667	0
bin	129.816	0
bin	129.84933333333	0
bin	129.88266666667	0
bin	129.916	0
statistic RandomGeometricGraph.rgnv[46] 	arrivalPerc:histogram
field count 1
field mean 1
field stddev nan
field sum 1
field sqrsum 1
field min 1
field max 1
attr interpolationmode  none
attr source  count(arrival)
attr title  "arrival perc, histogram"
bin	-INF	0
bin	0	0
bin	1	1
bin	2	0
statistic RandomGeometricGraph.rgnv[47] 	arrivalTime:histogram
field count 1
field mean 0
field stddev nan
field sum 0
field sqrsum 0
field min 0
field max 0
attr interpolationmode  none
attr source  arrivalTime
attr title  "arrival time, histogram"
bin	-INF	0
bin	-0.5	0
bin	-0.46666666666667	0
bin	-0.43333333333333	0
bin	-0.4	0
bin	-0.36666666666667	0
bin	-0.33333333333333	0
bin	-0.3	0
bin	-0.26666666666667	0
bin	-0.23333333333333	0
bin	-0.2	0
bin	-0.16666666666667	0
bin	-0.13333333333333	0
bin	-0.1	0
bin	-0.066666666666667	0
bin	-0.033333333333333	0
bin	0	1
bin	0.033333333333333	0
bin	0.066666666666667	0
bin	0.1	0
bin	0.13333333333333	0
bin	0.16666666666667	0
bin	0.2	0
bin	0.23333333333333	0
bin	0.26666666666667	0
bin	0.3	0
bin	0.33333333333333	0
bin	0.36666666666667	0
bin	0.4	0
bin	0.43333333333333	0
bin	0.46666666666667	0
bin	0.5	0
statistic RandomGeometricGraph.rgnv[47] 	arrivalPerc:histogram
field count 1
field mean 1
field stddev nan
field sum 1
field sqrsum 1
field min 1
field max 1
attr interpolationmode  none
attr source  count(arrival)
attr title  "arrival perc, histogram"
bin	-INF	0
bin	0	0
bin	1	1
bin	2	0
statistic RandomGeometricGraph.rgnv[48] 	arrivalTime:histogram
field count 1
field mean 144.426
field stddev nan
field sum 144.426
field sqrsum 20858.869476
field min 144.426
field max 144.426
attr interpolationmode  none
attr source  arrivalTime
attr title  "arrival time, histogram"
bin	-INF	0
bin	143.926	0
bin	143.95933333333	0
bin	143.99266666667	0
bin	144.026	0
bin	144.05933333333	0
bin	144.09266666667	0
bin	144.126	0
bin	144.15933333333	0
bin	144.19266666667	0
bin	144.226	0
bin	144.25933333333	0
bin	144.29266666667	0
bin	144.326	0
bin	144.35933333333	0
bin	144.39266666667	0
bin	144.426	1
bin	144.45933333333	0
bin	144.49266666667	0
bin	144.526	0
bin	144.55933333333	0
bin	144.59266666667	0
bin	144.626	0
bin	144.65933333333	0
bin	144.69266666667	0
bin	144.726	0
bin	144.75933333333	0
bin	144.79266666667	0
bin	144.826	0
bin	144.85933333333	0
bin	144.89266666667	0
bin	144.926	0
statistic RandomGeometricGraph.rgnv[48] 	arrivalPerc:histogram
field count 1
field mean 1
field stddev nan
field sum 1
field sqrsum 1
field min 1
field max 1
attr interpolationmode  none
attr source  count(arrival)
attr title  "arrival perc, histogram"
bin	-INF	0
bin	0	0
bin	1	1
bin	2	0
statistic RandomGeometricGraph.rgnv[49] 	arrivalTime:histogram
field count 1
field mean 203.868
field stddev nan
field sum 203.868
field sqrsum 41562.161424
field min 203.868
field max 203.868
attr interpolationmode  none
attr source  arrivalTime
attr title  "arrival time, histogram"
bin	-INF	0
bin	203.368	0
bin	203.40133333333	0
bin	203.43466666667	0
bin	203.468	0
bin	203.50133333333	0
bin	203.53466666667	0
bin	203.568	0
bin	203.60133333333	0
bin	203.63466666667	0
bin	203.668	0
bin	203.70133333333	0
bin	203.73466666667	0
bin	203.768	0
bin	203.80133333333	0
bin	203.83466666667	0
bin	203.868	1
bin	203.90133333333	0
bin	203.93466666667	0
bin	203.968	0
bin	204.00133333333	0
bin	204.03466666667	0
bin	204.068	0
bin	204.10133333333	0
bin	204.13466666667	0
bin	204.168	0
bin	204.20133333333	0
bin	204.23466666667	0
bin	204.268	0
bin	204.30133333333	0
bin	204.33466666667	0
bin	204.368	0
statistic RandomGeometricGraph.rgnv[49] 	arrivalPerc:histogram
field count 1
field mean 1
field stddev nan
field sum 1
field sqrsum 1
field min 1
field max 1
attr interpolationmode  none
attr source  count(arrival)
attr title  "arrival perc, histogram"
bin	-INF	0
bin	0	0
bin	1	1
bin	2	0
statistic RandomGeometricGraph.rgnv[50] 	arrivalTime:histogram
field count 1
field mean 236.089
field stddev nan
field sum 236.089
field sqrsum 55738.015921
field min 236.089
field max 236.089
attr interpolationmode  none
attr source  arrivalTime
attr title  "arrival time, histogram"
bin	-INF	0
bin	235.589	0
bin	235.62233333333	0
bin	235.65566666667	0
bin	235.689	0
bin	235.72233333333	0
bin	235.75566666667	0
bin	235.789	0
bin	235.82233333333	0
bin	235.85566666667	0
bin	235.889	0
bin	235.92233333333	0
bin	235.95566666667	0
bin	235.989	0
bin	236.02233333333	0
bin	236.05566666667	0
bin	236.089	1
bin	236.12233333333	0
bin	236.15566666667	0
bin	236.189	0
bin	236.22233333333	0
bin	236.25566666667	0
bin	236.289	0
bin	236.32233333333	0
bin	236.35566666667	0
bin	236.389	0
bin	236.42233333333	0
bin	236.45566666667	0
bin	236.489	0
bin	236.52233333333	0
bin	236.55566666667	0
bin	236.589	0
statistic RandomGeometricGraph.rgnv[50] 	arrivalPerc:histogram
field count 1
field mean 1
field stddev nan
field sum 1
field sqrsum 1
field min 1
field max 1
attr interpolationmode  none
attr source  count(arrival)
attr title  "arrival perc, histogram"
bin	-INF	0
bin	0	0
bin	1	1
bin	2	0
statistic RandomGeometricGraph.rgnv[51] 	arrivalTime:histogram
field count 1
field mean 330.561
field stddev nan
field sum 330.561
field sqrsum 109270.574721
field min 330.561
field max 330.561
attr interpolationmode  none
attr source  arrivalTime
attr title  "arrival time, histogram"
bin	-INF	0
bin	330.061	0
bin	330.09433333333	0
bin	330.12766666667	0
bin	330.161	0
bin	330.19433333333	0
bin	330.22766666667	0
bin	330.261	0
bin	330.29433333333	0
bin	330.32766666667	0
bin	330.361	0
bin	330.39433333333	0
bin	330.42766666667	0
bin	330.461	0
bin	330.49433333333	0
bin	330.52766666667	0
bin	330.561	1
bin	330.59433333333	0
bin	330.62766666667	0
bin	330.661	0
bin	330.69433333333	0
bin	330.72766666667	0
bin	330.761	0
bin	330.79433333333	0
bin	330.82766666667	0
bin	330.861	0
bin	330.89433333333	0
bin	330.92766666667	0
bin	330.961	0
bin	330.99433333333	0
bin	331.02766666667	0
bin	331.061	0
statistic RandomGeometricGraph.rgnv[51] 	arrivalPerc:histogram
field count 1
field mean 1
field stddev nan
field sum 1
field sqrsum 1
field min 1
field max 1
attr interpolationmode  none
attr source  count(arrival)
attr title  "arrival perc, histogram"
bin	-INF	0
bin	0	0
bin	1	1
bin	2	0
statistic RandomGeometricGraph.rgnv[52] 	arrivalTime:histogram
field count 1
field mean 261.109
field stddev nan
field sum 261.109
field sqrsum 68177.909881
field min 261.109
field max 261.109
attr interpolationmode  none
attr source  arrivalTime
attr title  "arrival time, histogram"
bin	-INF	0
bin	260.609	0
bin	260.64233333333	0
bin	260.67566666667	0
bin	260.709	0
bin	260.74233333333	0
bin	260.77566666667	0
bin	260.809	0
bin	260.84233333333	0
bin	260.87566666667	0
bin	260.909	0
bin	260.94233333333	0
bin	260.97566666667	0
bin	261.009	0
bin	261.04233333333	0
bin	261.07566666667	0
bin	261.109	1
bin	261.14233333333	0
bin	261.17566666667	0
bin	261.209	0
bin	261.24233333333	0
bin	261.27566666667	0
bin	261.309	0
bin	261.34233333333	0
bin	261.37566666667	0
bin	261.409	0
bin	261.44233333333	0
bin	261.47566666667	0
bin	261.509	0
bin	261.54233333333	0
bin	261.57566666667	0
bin	261.609	0
statistic RandomGeometricGraph.rgnv[52] 	arrivalPerc:histogram
field count 1
field mean 1
field stddev nan
field sum 1
field sqrsum 1
field min 1
field max 1
attr interpolationmode  none
attr source  count(arrival)
attr title  "arrival perc, histogram"
bin	-INF	0
bin	0	0
bin	1	1
bin	2	0
statistic RandomGeometricGraph.rgnv[53] 	arrivalTime:histogram
field count 1
field mean 208.878
field stddev nan
field sum 208.878
field sqrsum 43630.018884
field min 208.878
field max 208.878
attr interpolationmode  none
attr source  arrivalTime
attr title  "arrival time, histogram"
bin	-INF	0
bin	208.378	0
bin	208.41133333333	0
bin	208.44466666667	0
bin	208.478	0
bin	208.51133333333	0
bin	208.54466666667	0
bin	208.578	0
bin	208.61133333333	0
bin	208.64466666667	0
bin	208.678	0
bin	208.71133333333	0
bin	208.74466666667	0
bin	208.778	0
bin	208.81133333333	0
bin	208.84466666667	0
bin	208.878	1
bin	208.91133333333	0
bin	208.94466666667	0
bin	208.978	0
bin	209.01133333333	0
bin	209.04466666667	0
bin	209.078	0
bin	209.11133333333	0
bin	209.14466666667	0
bin	209.178	0
bin	209.21133333333	0
bin	209.24466666667	0
bin	209.278	0
bin	209.31133333333	0
bin	209.34466666667	0
bin	209.378	0
statistic RandomGeometricGraph.rgnv[53] 	arrivalPerc:histogram
field count 1
field mean 1
field stddev nan
field sum 1
field sqrsum 1
field min 1
field max 1
attr interpolationmode  none
attr source  count(arrival)
attr title  "arrival perc, histogram"
bin	-INF	0
bin	0	0
bin	1	1
bin	2	0
statistic RandomGeometricGraph.rgnv[54] 	arrivalTime:histogram
field count 1
field mean 134.416
field stddev nan
field sum 134.416
field sqrsum 18067.661056
field min 134.416
field max 134.416
attr interpolationmode  none
attr source  arrivalTime
attr title  "arrival time, histogram"
bin	-INF	0
bin	133.916	0
bin	133.94933333333	0
bin	133.98266666667	0
bin	134.016	0
bin	134.04933333333	0
bin	134.08266666667	0
bin	134.116	0
bin	134.14933333333	0
bin	134.18266666667	0
bin	134.216	0
bin	134.24933333333	0
bin	134.28266666667	0
bin	134.316	0
bin	134.34933333333	0
bin	134.38266666667	0
bin	134.416	1
bin	134.44933333333	0
bin	134.48266666667	0
bin	134.516	0
bin	134.54933333333	0
bin	134.58266666667	0
bin	134.616	0
bin	134.64933333333	0
bin	134.68266666667	0
bin	134.716	0
bin	134.74933333333	0
bin	134.78266666667	0
bin	134.816	0
bin	134.84933333333	0
bin	134.88266666667	0
bin	134.916	0
statistic RandomGeometricGraph.rgnv[54] 	arrivalPerc:histogram
field count 1
field mean 1
field stddev nan
field sum 1
field sqrsum 1
field min 1
field max 1
attr interpolationmode  none
attr source  count(arrival)
attr title  "arrival perc, histogram"
bin	-INF	0
bin	0	0
bin	1	1
bin	2	0
statistic RandomGeometricGraph.rgnv[55] 	arrivalTime:histogram
field count 1
field mean 223.908
field stddev nan
field sum 223.908
field sqrsum 50134.792464
field min 223.908
field max 223.908
attr interpolationmode  none
attr source  arrivalTime
attr title  "arrival time, histogram"
bin	-INF	0
bin	223.408	0
bin	223.44133333333	0
bin	223.47466666667	0
bin	223.508	0
bin	223.54133333333	0
bin	223.57466666667	0
bin	223.608	0
bin	223.64133333333	0
bin	223.67466666667	0
bin	223.708	0
bin	223.74133333333	0
bin	223.77466666667	0
bin	223.808	0
bin	223.84133333333	0
bin	223.87466666667	0
bin	223.908	1
bin	223.94133333333	0
bin	223.97466666667	0
bin	224.008	0
bin	224.04133333333	0
bin	224.07466666667	0
bin	224.108	0
bin	224.14133333333	0
bin	224.17466666667	0
bin	224.208	0
bin	224.24133333333	0
bin	224.27466666667	0
bin	224.308	0
bin	224.34133333333	0
bin	224.37466666667	0
bin	224.408	0
statistic RandomGeometricGraph.rgnv[55] 	arrivalPerc:histogram
field count 1
field mean 1
field stddev nan
field sum 1
field sqrsum 1
field min 1
field max 1
attr interpolationmode  none
attr source  count(arrival)
attr title  "arrival perc, histogram"
bin	-INF	0
bin	0	0
bin	1	1
bin	2	0
statistic RandomGeometricGraph.rgnv[56] 	arrivalTime:histogram
field count 1
field mean 340.571
field stddev nan
field sum 340.571
field sqrsum 115988.606041
field min 340.571
field max 340.571
attr interpolationmode  none
attr source  arrivalTime
attr title  "arrival time, histogram"
bin	-INF	0
bin	340.071	0
bin	340.10433333333	0
bin	340.13766666667	0
bin	340.171	0
bin	340.20433333333	0
bin	340.23766666667	0
bin	340.271	0
bin	340.30433333333	0
bin	340.33766666667	0
bin	340.371	0
bin	340.40433333333	0
bin	340.43766666667	0
bin	340.471	0
bin	340.50433333333	0
bin	340.53766666667	0
bin	340.571	1
bin	340.60433333333	0
bin	340.63766666667	0
bin	340.671	0
bin	340.70433333333	0
bin	340.73766666667	0
bin	340.771	0
bin	340.80433333333	0
bin	340.83766666667	0
bin	340.871	0
bin	340.90433333333	0
bin	340.93766666667	0
bin	340.971	0
bin	341.00433333333	0
bin	341.03766666667	0
bin	341.071	0
statistic RandomGeometricGraph.rgnv[56] 	arrivalPerc:histogram
field count 1
field mean 1
field stddev nan
field sum 1
field sqrsum 1
field min 1
field max 1
attr interpolationmode  none
attr source  count(arrival)
attr title  "arrival perc, histogram"
bin	-INF	0
bin	0	0
bin	1	1
bin	2	0
statistic RandomGeometricGraph.rgnv[57] 	arrivalTime:histogram
field count 1
field mean 223.898
field stddev nan
field sum 223.898
field sqrsum 50130.314404
field min 223.898
field max 223.898
attr interpolationmode  none
attr source  arrivalTime
attr title  "arrival time, histogram"
bin	-INF	0
bin	223.398	0
bin	223.43133333333	0
bin	223.46466666667	0
bin	223.498	0
bin	223.53133333333	0
bin	223.56466666667	0
bin	223.598	0
bin	223.63133333333	0
bin	223.66466666667	0
bin	223.698	0
bin	223.73133333333	0
bin	223.76466666667	0
bin	223.798	0
bin	223.83133333333	0
bin	223.86466666667	0
bin	223.898	1
bin	223.93133333333	0
bin	223.96466666667	0
bin	223.998	0
bin	224.03133333333	0
bin	224.06466666667	0
bin	224.098	0
bin	224.13133333333	0
bin	224.16466666667	0
bin	224.198	0
bin	224.23133333333	0
bin	224.26466666667	0
bin	224.298	0
bin	224.33133333333	0
bin	224.36466666667	0
bin	224.398	0
statistic RandomGeometricGraph.rgnv[57] 	arrivalPerc:histogram
field count 1
field mean 1
field stddev nan
field sum 1
field sqrsum 1
field min 1
field max 1
attr interpolationmode  none
attr source  count(arrival)
attr title  "arrival perc, histogram"
bin	-INF	0
bin	0	0
bin	1	1
bin	2	0
statistic RandomGeometricGraph.rgnv[58] 	arrivalTime:histogram
field count 1
field mean 213.878
field stddev nan
field sum 213.878
field sqrsum 45743.798884
field min 213.878
field max 213.878
attr interpolationmode  none
attr source  arrivalTime
attr title  "arrival time, histogram"
bin	-INF	0
bin	213.378	0
bin	213.41133333333	0
bin	213.44466666667	0
bin	213.478	0
bin	213.51133333333	0
bin	213.54466666667	0
bin	213.578	0
bin	213.61133333333	0
bin	213.64466666667	0
bin	213.678	0
bin	213.71133333333	0
bin	213.74466666667	0
bin	213.778	0
bin	213.81133333333	0
bin	213.84466666667	0
bin	213.878	1
bin	213.91133333333	0
bin	213.94466666667	0
bin	213.978	0
bin	214.01133333333	0
bin	214.04466666667	0
bin	214.078	0
bin	214.11133333333	0
bin	214.14466666667	0
bin	214.178	0
bin	214.21133333333	0
bin	214.24466666667	0
bin	214.278	0
bin	214.31133333333	0
bin	214.34466666667	0
bin	214.378	0
statistic RandomGeometricGraph.rgnv[58] 	arrivalPerc:histogram
field count 1
field mean 1
field stddev nan
field sum 1
field sqrsum 1
field min 1
field max 1
attr interpolationmode  none
attr source  count(arrival)
attr title  "arrival perc, histogram"
bin	-INF	0
bin	0	0
bin	1	1
bin	2	0
statistic RandomGeometricGraph.rgnv[59] 	arrivalTime:histogram
field count 1
field mean 119.406
field stddev nan
field sum 119.406
field sqrsum 14257.792836
field min 119.406
field max 119.406
attr interpolationmode  none
attr source  arrivalTime
attr title  "arrival time, histogram"
bin	-INF	0
bin	118.906	0
bin	118.93933333333	0
bin	118.97266666667	0
bin	119.006	0
bin	119.03933333333	0
bin	119.07266666667	0
bin	119.106	0
bin	119.13933333333	0
bin	119.17266666667	0
bin	119.206	0
bin	119.23933333333	0
bin	119.27266666667	0
bin	119.306	0
bin	119.33933333333	0
bin	119.37266666667	0
bin	119.406	1
bin	119.43933333333	0
bin	119.47266666667	0
bin	119.506	0
bin	119.53933333333	0
bin	119.57266666667	0
bin	119.606	0
bin	119.63933333333	0
bin	119.67266666667	0
bin	119.706	0
bin	119.73933333333	0
bin	119.77266666667	0
bin	119.806	0
bin	119.83933333333	0
bin	119.87266666667	0
bin	119.906	0
statistic RandomGeometricGraph.rgnv[59] 	arrivalPerc:histogram
field count 1
field mean 1
field stddev nan
field sum 1
field sqrsum 1
field min 1
field max 1
attr interpolationmode  none
attr source  count(arrival)
attr title  "arrival perc, histogram"
bin	-INF	0
bin	0	0
bin	1	1
bin	2	0
statistic RandomGeometricGraph.rgnv[60] 	arrivalTime:histogram
field count 1
field mean 13.231
field stddev nan
field sum 13.231
field sqrsum 175.059361
field min 13.231
field max 13.231
attr interpolationmode  none
attr source  arrivalTime
attr title  "arrival time, histogram"
bin	-INF	0
bin	12.731	0
bin	12.764333333333	0
bin	12.797666666667	0
bin	12.831	0
bin	12.864333333333	0
bin	12.897666666667	0
bin	12.931	0
bin	12.964333333333	0
bin	12.997666666667	0
bin	13.031	0
bin	13.064333333333	0
bin	13.097666666667	0
bin	13.131	0
bin	13.164333333333	0
bin	13.197666666667	0
bin	13.231	1
bin	13.264333333333	0
bin	13.297666666667	0
bin	13.331	0
bin	13.364333333333	0
bin	13.397666666667	0
bin	13.431	0
bin	13.464333333333	0
bin	13.497666666667	0
bin	13.531	0
bin	13.564333333333	0
bin	13.597666666667	0
bin	13.631	0
bin	13.664333333333	0
bin	13.697666666667	0
bin	13.731	0
statistic RandomGeometricGraph.rgnv[60] 	arrivalPerc:histogram
field count 1
field mean 1
field stddev nan
field sum 1
field sqrsum 1
field min 1
field max 1
attr interpolationmode  none
attr source  count(arrival)
attr title  "arrival perc, histogram"
bin	-INF	0
bin	0	0
bin	1	1
bin	2	0
statistic RandomGeometricGraph.rgnv[61] 	arrivalTime:histogram
field count 1
field mean 25.472
field stddev nan
field sum 25.472
field sqrsum 648.822784
field min 25.472
field max 25.472
attr interpolationmode  none
attr source  arrivalTime
attr title  "arrival time, histogram"
bin	-INF	0
bin	24.972	0
bin	25.005333333333	0
bin	25.038666666667	0
bin	25.072	0
bin	25.105333333333	0
bin	25.138666666667	0
bin	25.172	0
bin	25.205333333333	0
bin	25.238666666667	0
bin	25.272	0
bin	25.305333333333	0
bin	25.338666666667	0
bin	25.372	0
bin	25.405333333333	0
bin	25.438666666667	0
bin	25.472	1
bin	25.505333333333	0
bin	25.538666666667	0
bin	25.572	0
bin	25.605333333333	0
bin	25.638666666667	0
bin	25.672	0
bin	25.705333333333	0
bin	25.738666666667	0
bin	25.772	0
bin	25.805333333333	0
bin	25.838666666667	0
bin	25.872	0
bin	25.905333333333	0
bin	25.938666666667	0
bin	25.972	0
statistic RandomGeometricGraph.rgnv[61] 	arrivalPerc:histogram
field count 1
field mean 1
field stddev nan
field sum 1
field sqrsum 1
field min 1
field max 1
attr interpolationmode  none
attr source  count(arrival)
attr title  "arrival perc, histogram"
bin	-INF	0
bin	0	0
bin	1	1
bin	2	0
statistic RandomGeometricGraph.rgnv[62] 	arrivalTime:histogram
field count 1
field mean 181.657
field stddev nan
field sum 181.657
field sqrsum 32999.265649
field min 181.657
field max 181.657
attr interpolationmode  none
attr source  arrivalTime
attr title  "arrival time, histogram"
bin	-INF	0
bin	181.157	0
bin	181.19033333333	0
bin	181.22366666667	0
bin	181.257	0
bin	181.29033333333	0
bin	181.32366666667	0
bin	181.357	0
bin	181.39033333333	0
bin	181.42366666667	0
bin	181.457	0
bin	181.49033333333	0
bin	181.52366666667	0
bin	181.557	0
bin	181.59033333333	0
bin	181.62366666667	0
bin	181.657	1
bin	181.69033333333	0
bin	181.72366666667	0
bin	181.757	0
bin	181.79033333333	0
bin	181.82366666667	0
bin	181.857	0
bin	181.89033333333	0
bin	181.92366666667	0
bin	181.957	0
bin	181.99033333333	0
bin	182.02366666667	0
bin	182.057	0
bin	182.09033333333	0
bin	182.12366666667	0
bin	182.157	0
statistic RandomGeometricGraph.rgnv[62] 	arrivalPerc:histogram
field count 1
field mean 1
field stddev nan
field sum 1
field sqrsum 1
field min 1
field max 1
attr interpolationmode  none
attr source  count(arrival)
attr title  "arrival perc, histogram"
bin	-INF	0
bin	0	0
bin	1	1
bin	2	0
statistic RandomGeometricGraph.rgnv[63] 	arrivalTime:histogram
field count 1
field mean 256.109
field stddev nan
field sum 256.109
field sqrsum 65591.819881
field min 256.109
field max 256.109
attr interpolationmode  none
attr source  arrivalTime
attr title  "arrival time, histogram"
bin	-INF	0
bin	255.609	0
bin	255.64233333333	0
bin	255.67566666667	0
bin	255.709	0
bin	255.74233333333	0
bin	255.77566666667	0
bin	255.809	0
bin	255.84233333333	0
bin	255.87566666667	0
bin	255.909	0
bin	255.94233333333	0
bin	255.97566666667	0
bin	256.009	0
bin	256.04233333333	0
bin	256.07566666667	0
bin	256.109	1
bin	256.14233333333	0
bin	256.17566666667	0
bin	256.209	0
bin	256.24233333333	0
bin	256.27566666667	0
bin	256.309	0
bin	256.34233333333	0
bin	256.37566666667	0
bin	256.409	0
bin	256.44233333333	0
bin	256.47566666667	0
bin	256.509	0
bin	256.54233333333	0
bin	256.57566666667	0
bin	256.609	0
statistic RandomGeometricGraph.rgnv[63] 	arrivalPerc:histogram
field count 1
field mean 1
field stddev nan
field sum 1
field sqrsum 1
field min 1
field max 1
attr interpolationmode  none
attr source  count(arrival)
attr title  "arrival perc, histogram"
bin	-INF	0
bin	0	0
bin	1	1
bin	2	0
statistic RandomGeometricGraph.rgnv[64] 	arrivalTime:histogram
field count 1
field mean 77.165
field stddev nan
field sum 77.165
field sqrsum 5954.437225
field min 77.165
field max 77.165
attr interpolationmode  none
attr source  arrivalTime
attr title  "arrival time, histogram"
bin	-INF	0
bin	76.665	0
bin	76.698333333333	0
bin	76.731666666667	0
bin	76.765	0
bin	76.798333333333	0
bin	76.831666666667	0
bin	76.865	0
bin	76.898333333333	0
bin	76.931666666667	0
bin	76.965	0
bin	76.998333333333	0
bin	77.031666666667	0
bin	77.065	0
bin	77.098333333333	0
bin	77.131666666667	0
bin	77.165	1
bin	77.198333333333	0
bin	77.231666666667	0
bin	77.265	0
bin	77.298333333333	0
bin	77.331666666667	0
bin	77.365	0
bin	77.398333333333	0
bin	77.431666666667	0
bin	77.465	0
bin	77.498333333333	0
bin	77.531666666667	0
bin	77.565	0
bin	77.598333333333	0
bin	77.631666666667	0
bin	77.665	0
statistic RandomGeometricGraph.rgnv[64] 	arrivalPerc:histogram
field count 1
field mean 1
field stddev nan
field sum 1
field sqrsum 1
field min 1
field max 1
attr interpolationmode  none
attr source  count(arrival)
attr title  "arrival perc, histogram"
bin	-INF	0
bin	0	0
bin	1	1
bin	2	0
statistic RandomGeometricGraph.rgnv[65] 	arrivalTime:histogram
field count 1
field mean 119.406
field stddev nan
field sum 119.406
field sqrsum 14257.792836
field min 119.406
field max 119.406
attr interpolationmode  none
attr source  arrivalTime
attr title  "arrival time, histogram"
bin	-INF	0
bin	118.906	0
bin	118.93933333333	0
bin	118.97266666667	0
bin	119.006	0
bin	119.03933333333	0
bin	119.07266666667	0
bin	119.106	0
bin	119.13933333333	0
bin	119.17266666667	0
bin	119.206	0
bin	119.23933333333	0
bin	119.27266666667	0
bin	119.306	0
bin	119.33933333333	0
bin	119.37266666667	0
bin	119.406	1
bin	119.43933333333	0
bin	119.47266666667	0
bin	119.506	0
bin	119.53933333333	0
bin	119.57266666667	0
bin	119.606	0
bin	119.63933333333	0
bin	119.67266666667	0
bin	119.706	0
bin	119.73933333333	0
bin	119.77266666667	0
bin	119.806	0
bin	119.83933333333	0
bin	119.87266666667	0
bin	119.906	0
statistic RandomGeometricGraph.rgnv[65] 	arrivalPerc:histogram
field count 1
field mean 1
field stddev nan
field sum 1
field sqrsum 1
field min 1
field max 1
attr interpolationmode  none
attr source  count(arrival)
attr title  "arrival perc, histogram"
bin	-INF	0
bin	0	0
bin	1	1
bin	2	0
statistic RandomGeometricGraph.rgnv[66] 	arrivalTime:histogram
field count 1
field mean 49.934
field stddev nan
field sum 49.934
field sqrsum 2493.404356
field min 49.934
field max 49.934
attr interpolationmode  none
attr source  arrivalTime
attr title  "arrival time, histogram"
bin	-INF	0
bin	49.434	0
bin	49.467333333333	0
bin	49.500666666667	0
bin	49.534	0
bin	49.567333333333	0
bin	49.600666666667	0
bin	49.634	0
bin	49.667333333333	0
bin	49.700666666667	0
bin	49.734	0
[...]
attr title  "arrival perc, histogram"
bin	-INF	0
bin	0	0
bin	1	1
bin	2	0
statistic RandomGeometricGraph.rgnv[83] 	arrivalTime:histogram
field count 1
field mean 119.396
field stddev nan
field sum 119.396
field sqrsum 14255.404816
field min 119.396
field max 119.396
attr interpolationmode  none
attr source  arrivalTime
attr title  "arrival time, histogram"
bin	-INF	0
bin	118.896	0
bin	118.92933333333	0
bin	118.96266666667	0
bin	118.996	0
bin	119.02933333333	0
bin	119.06266666667	0
bin	119.096	0
bin	119.12933333333	0
bin	119.16266666667	0
bin	119.196	0
bin	119.22933333333	0
bin	119.26266666667	0
bin	119.296	0
bin	119.32933333333	0
bin	119.36266666667	0
bin	119.396	1
bin	119.42933333333	0
bin	119.46266666667	0
bin	119.496	0
bin	119.52933333333	0
bin	119.56266666667	0
bin	119.596	0
bin	119.62933333333	0
bin	119.66266666667	0
bin	119.696	0
bin	119.72933333333	0
bin	119.76266666667	0
bin	119.796	0
bin	119.82933333333	0
bin	119.86266666667	0
bin	119.896	0
statistic RandomGeometricGraph.rgnv[83] 	arrivalPerc:histogram
field count 1
field mean 1
field stddev nan
field sum 1
field sqrsum 1
field min 1
field max 1
attr interpolationmode  none
attr source  count(arrival)
attr title  "arrival perc, histogram"
bin	-INF	0
bin	0	0
bin	1	1
bin	2	0
statistic RandomGeometricGraph.rgnv[84] 	arrivalTime:histogram
field count 1
field mean 313.37
field stddev nan
field sum 313.37
field sqrsum 98200.7569
field min 313.37
field max 313.37
attr interpolationmode  none
attr source  arrivalTime
attr title  "arrival time, histogram"
bin	-INF	0
bin	312.87	0
bin	312.90333333333	0
bin	312.93666666667	0
bin	312.97	0
bin	313.00333333333	0
bin	313.03666666667	0
bin	313.07	0
bin	313.10333333333	0
bin	313.13666666667	0
bin	313.17	0
bin	313.20333333333	0
bin	313.23666666667	0
bin	313.27	0
bin	313.30333333333	0
bin	313.33666666667	0
bin	313.37	1
bin	313.40333333333	0
bin	313.43666666667	0
bin	313.47	0
bin	313.50333333333	0
bin	313.53666666667	0
bin	313.57	0
bin	313.60333333333	0
bin	313.63666666667	0
bin	313.67	0
bin	313.70333333333	0
bin	313.73666666667	0
bin	313.77	0
bin	313.80333333333	0
bin	313.83666666667	0
bin	313.87	0
statistic RandomGeometricGraph.rgnv[84] 	arrivalPerc:histogram
field count 1
field mean 1
field stddev nan
field sum 1
field sqrsum 1
field min 1
field max 1
attr interpolationmode  none
attr source  count(arrival)
attr title  "arrival perc, histogram"
bin	-INF	0
bin	0	0
bin	1	1
bin	2	0
statistic RandomGeometricGraph.rgnv[85] 	arrivalTime:histogram
field count 1
field mean 176.647
field stddev nan
field sum 176.647
field sqrsum 31204.162609
field min 176.647
field max 176.647
attr interpolationmode  none
attr source  arrivalTime
attr title  "arrival time, histogram"
bin	-INF	0
bin	176.147	0
bin	176.18033333333	0
bin	176.21366666667	0
bin	176.247	0
bin	176.28033333333	0
bin	176.31366666667	0
bin	176.347	0
bin	176.38033333333	0
bin	176.41366666667	0
bin	176.447	0
bin	176.48033333333	0
bin	176.51366666667	0
bin	176.547	0
bin	176.58033333333	0
bin	176.61366666667	0
bin	176.647	1
bin	176.68033333333	0
bin	176.71366666667	0
bin	176.747	0
bin	176.78033333333	0
bin	176.81366666667	0
bin	176.847	0
bin	176.88033333333	0
bin	176.91366666667	0
bin	176.947	0
bin	176.98033333333	0
bin	177.01366666667	0
bin	177.047	0
bin	177.08033333333	0
bin	177.11366666667	0
bin	177.147	0
statistic RandomGeometricGraph.rgnv[85] 	arrivalPerc:histogram
field count 1
field mean 1
field stddev nan
field sum 1
field sqrsum 1
field min 1
field max 1
attr interpolationmode  none
attr source  count(arrival)
attr title  "arrival perc, histogram"
bin	-INF	0
bin	0	0
bin	1	1
bin	2	0
statistic RandomGeometricGraph.rgnv[86] 	arrivalTime:histogram
field count 1
field mean 203.868
field stddev nan
field sum 203.868
field sqrsum 41562.161424
field min 203.868
field max 203.868
attr interpolationmode  none
attr source  arrivalTime
attr title  "arrival time, histogram"
bin	-INF	0
bin	203.368	0
bin	203.40133333333	0
bin	203.43466666667	0
bin	203.468	0
bin	203.50133333333	0
bin	203.53466666667	0
bin	203.568	0
bin	203.60133333333	0
bin	203.63466666667	0
bin	203.668	0
bin	203.70133333333	0
bin	203.73466666667	0
bin	203.768	0
bin	203.80133333333	0
bin	203.83466666667	0
bin	203.868	1
bin	203.90133333333	0
bin	203.93466666667	0
bin	203.968	0
bin	204.00133333333	0
bin	204.03466666667	0
bin	204.068	0
bin	204.10133333333	0
bin	204.13466666667	0
bin	204.168	0
bin	204.20133333333	0
bin	204.23466666667	0
bin	204.268	0
bin	204.30133333333	0
bin	204.33466666667	0
bin	204.368	0
statistic RandomGeometricGraph.rgnv[86] 	arrivalPerc:histogram
field count 1
field mean 1
field stddev nan
field sum 1
field sqrsum 1
field min 1
field max 1
attr interpolationmode  none
attr source  count(arrival)
attr title  "arrival perc, histogram"
bin	-INF	0
bin	0	0
bin	1	1
bin	2	0
statistic RandomGeometricGraph.rgnv[87] 	arrivalTime:histogram
field count 1
field mean 77.165
field stddev nan
field sum 77.165
field sqrsum 5954.437225
field min 77.165
field max 77.165
attr interpolationmode  none
attr source  arrivalTime
attr title  "arrival time, histogram"
bin	-INF	0
bin	76.665	0
bin	76.698333333333	0
bin	76.731666666667	0
bin	76.765	0
bin	76.798333333333	0
bin	76.831666666667	0
bin	76.865	0
bin	76.898333333333	0
bin	76.931666666667	0
bin	76.965	0
bin	76.998333333333	0
bin	77.031666666667	0
bin	77.065	0
bin	77.098333333333	0
bin	77.131666666667	0
bin	77.165	1
bin	77.198333333333	0
bin	77.231666666667	0
bin	77.265	0
bin	77.298333333333	0
bin	77.331666666667	0
bin	77.365	0
bin	77.398333333333	0
bin	77.431666666667	0
bin	77.465	0
bin	77.498333333333	0
bin	77.531666666667	0
bin	77.565	0
bin	77.598333333333	0
bin	77.631666666667	0
bin	77.665	0
statistic RandomGeometricGraph.rgnv[87] 	arrivalPerc:histogram
field count 1
field mean 1
field stddev nan
field sum 1
field sqrsum 1
field min 1
field max 1
attr interpolationmode  none
attr source  count(arrival)
attr title  "arrival perc, histogram"
bin	-INF	0
bin	0	0
bin	1	1
bin	2	0
statistic RandomGeometricGraph.rgnv[88] 	arrivalTime:histogram
field count 1
field mean 198.858
field stddev nan
field sum 198.858
field sqrsum 39544.504164
field min 198.858
field max 198.858
attr interpolationmode  none
attr source  arrivalTime
attr title  "arrival time, histogram"
bin	-INF	0
bin	198.358	0
bin	198.39133333333	0
bin	198.42466666667	0
bin	198.458	0
bin	198.49133333333	0
bin	198.52466666667	0
bin	198.558	0
bin	198.59133333333	0
bin	198.62466666667	0
bin	198.658	0
bin	198.69133333333	0
bin	198.72466666667	0
bin	198.758	0
bin	198.79133333333	0
bin	198.82466666667	0
bin	198.858	1
bin	198.89133333333	0
bin	198.92466666667	0
bin	198.958	0
bin	198.99133333333	0
bin	199.02466666667	0
bin	199.058	0
bin	199.09133333333	0
bin	199.12466666667	0
bin	199.158	0
bin	199.19133333333	0
bin	199.22466666667	0
bin	199.258	0
bin	199.29133333333	0
bin	199.32466666667	0
bin	199.358	0
statistic RandomGeometricGraph.rgnv[88] 	arrivalPerc:histogram
field count 1
field mean 1
field stddev nan
field sum 1
field sqrsum 1
field min 1
field max 1
attr interpolationmode  none
attr source  count(arrival)
attr title  "arrival perc, histogram"
bin	-INF	0
bin	0	0
bin	1	1
bin	2	0
statistic RandomGeometricGraph.rgnv[89] 	arrivalTime:histogram
field count 1
field mean 54.934
field stddev nan
field sum 54.934
field sqrsum 3017.744356
field min 54.934
field max 54.934
attr interpolationmode  none
attr source  arrivalTime
attr title  "arrival time, histogram"
bin	-INF	0
bin	54.434	0
bin	54.467333333333	0
bin	54.500666666667	0
bin	54.534	0
bin	54.567333333333	0
bin	54.600666666667	0
bin	54.634	0
bin	54.667333333333	0
bin	54.700666666667	0
bin	54.734	0
bin	54.767333333333	0
bin	54.800666666667	0
bin	54.834	0
bin	54.867333333333	0
bin	54.900666666667	0
bin	54.934	1
bin	54.967333333333	0
bin	55.000666666667	0
bin	55.034	0
bin	55.067333333333	0
bin	55.100666666667	0
bin	55.134	0
bin	55.167333333333	0
bin	55.200666666667	0
bin	55.234	0
bin	55.267333333333	0
bin	55.300666666667	0
bin	55.334	0
bin	55.367333333333	0
bin	55.400666666667	0
bin	55.434	0
statistic RandomGeometricGraph.rgnv[89] 	arrivalPerc:histogram
field count 1
field mean 1
field stddev nan
field sum 1
field sqrsum 1
field min 1
field max 1
attr interpolationmode  none
attr source  count(arrival)
attr title  "arrival perc, histogram"
bin	-INF	0
bin	0	0
bin	1	1
bin	2	0
statistic RandomGeometricGraph.rgnv[90] 	arrivalTime:histogram
field count 1
field mean 92.185
field stddev nan
field sum 92.185
field sqrsum 8498.074225
field min 92.185
field max 92.185
attr interpolationmode  none
attr source  arrivalTime
attr title  "arrival time, histogram"
bin	-INF	0
bin	91.685	0
bin	91.718333333333	0
bin	91.751666666667	0
bin	91.785	0
bin	91.818333333333	0
bin	91.851666666667	0
bin	91.885	0
bin	91.918333333333	0
bin	91.951666666667	0
bin	91.985	0
bin	92.018333333333	0
bin	92.051666666667	0
bin	92.085	0
bin	92.118333333333	0
bin	92.151666666667	0
bin	92.185	1
bin	92.218333333333	0
bin	92.251666666667	0
bin	92.285	0
bin	92.318333333333	0
bin	92.351666666667	0
bin	92.385	0
bin	92.418333333333	0
bin	92.451666666667	0
bin	92.485	0
bin	92.518333333333	0
bin	92.551666666667	0
bin	92.585	0
bin	92.618333333333	0
bin	92.651666666667	0
bin	92.685	0
statistic RandomGeometricGraph.rgnv[90] 	arrivalPerc:histogram
field count 1
field mean 1
field stddev nan
field sum 1
field sqrsum 1
field min 1
field max 1
attr interpolationmode  none
attr source  count(arrival)
attr title  "arrival perc, histogram"
bin	-INF	0
bin	0	0
bin	1	1
bin	2	0
statistic RandomGeometricGraph.rgnv[91] 	arrivalTime:histogram
field count 1
field mean 124.406
field stddev nan
field sum 124.406
field sqrsum 15476.852836
field min 124.406
field max 124.406
attr interpolationmode  none
attr source  arrivalTime
attr title  "arrival time, histogram"
bin	-INF	0
bin	123.906	0
bin	123.93933333333	0
bin	123.97266666667	0
bin	124.006	0
bin	124.03933333333	0
bin	124.07266666667	0
bin	124.106	0
bin	124.13933333333	0
bin	124.17266666667	0
bin	124.206	0
bin	124.23933333333	0
bin	124.27266666667	0
bin	124.306	0
bin	124.33933333333	0
bin	124.37266666667	0
bin	124.406	1
bin	124.43933333333	0
bin	124.47266666667	0
bin	124.506	0
bin	124.53933333333	0
bin	124.57266666667	0
bin	124.606	0
bin	124.63933333333	0
bin	124.67266666667	0
bin	124.706	0
bin	124.73933333333	0
bin	124.77266666667	0
bin	124.806	0
bin	124.83933333333	0
bin	124.87266666667	0
bin	124.906	0
statistic RandomGeometricGraph.rgnv[91] 	arrivalPerc:histogram
field count 1
field mean 1
field stddev nan
field sum 1
field sqrsum 1
field min 1
field max 1
attr interpolationmode  none
attr source  count(arrival)
attr title  "arrival perc, histogram"
bin	-INF	0
bin	0	0
bin	1	1
bin	2	0
statistic RandomGeometricGraph.rgnv[92] 	arrivalTime:histogram
field count 1
field mean 186.667
field stddev nan
field sum 186.667
field sqrsum 34844.568889
field min 186.667
field max 186.667
attr interpolationmode  none
attr source  arrivalTime
attr title  "arrival time, histogram"
bin	-INF	0
bin	186.167	0
bin	186.20033333333	0
bin	186.23366666667	0
bin	186.267	0
bin	186.30033333333	0
bin	186.33366666667	0
bin	186.367	0
bin	186.40033333333	0
bin	186.43366666667	0
bin	186.467	0
bin	186.50033333333	0
bin	186.53366666667	0
bin	186.567	0
bin	186.60033333333	0
bin	186.63366666667	0
bin	186.667	1
bin	186.70033333333	0
bin	186.73366666667	0
bin	186.767	0
bin	186.80033333333	0
bin	186.83366666667	0
bin	186.867	0
bin	186.90033333333	0
bin	186.93366666667	0
bin	186.967	0
bin	187.00033333333	0
bin	187.03366666667	0
bin	187.067	0
bin	187.10033333333	0
bin	187.13366666667	0
bin	187.167	0
statistic RandomGeometricGraph.rgnv[92] 	arrivalPerc:histogram
field count 1
field mean 1
field stddev nan
field sum 1
field sqrsum 1
field min 1
field max 1
attr interpolationmode  none
attr source  count(arrival)
attr title  "arrival perc, histogram"
bin	-INF	0
bin	0	0
bin	1	1
bin	2	0
statistic RandomGeometricGraph.rgnv[93] 	arrivalTime:histogram
field count 1
field mean 283.32
field stddev nan
field sum 283.32
field sqrsum 80270.2224
field min 283.32
field max 283.32
attr interpolationmode  none
attr source  arrivalTime
attr title  "arrival time, histogram"
bin	-INF	0
bin	282.82	0
bin	282.85333333333	0
bin	282.88666666667	0
bin	282.92	0
bin	282.95333333333	0
bin	282.98666666667	0
bin	283.02	0
bin	283.05333333333	0
bin	283.08666666667	0
bin	283.12	0
bin	283.15333333333	0
bin	283.18666666667	0
bin	283.22	0
bin	283.25333333333	0
bin	283.28666666667	0
bin	283.32	1
bin	283.35333333333	0
bin	283.38666666667	0
bin	283.42	0
bin	283.45333333333	0
bin	283.48666666667	0
bin	283.52	0
bin	283.55333333333	0
bin	283.58666666667	0
bin	283.62	0
bin	283.65333333333	0
bin	283.68666666667	0
bin	283.72	0
bin	283.75333333333	0
bin	283.78666666667	0
bin	283.82	0
statistic RandomGeometricGraph.rgnv[93] 	arrivalPerc:histogram
field count 1
field mean 1
field stddev nan
field sum 1
field sqrsum 1
field min 1
field max 1
attr interpolationmode  none
attr source  count(arrival)
attr title  "arrival perc, histogram"
bin	-INF	0
bin	0	0
bin	1	1
bin	2	0
statistic RandomGeometricGraph.rgnv[94] 	arrivalTime:histogram
field count 1
field mean 114.396
field stddev nan
field sum 114.396
field sqrsum 13086.444816
field min 114.396
field max 114.396
attr interpolationmode  none
attr source  arrivalTime
attr title  "arrival time, histogram"
bin	-INF	0
bin	113.896	0
bin	113.92933333333	0
bin	113.96266666667	0
bin	113.996	0
bin	114.02933333333	0
bin	114.06266666667	0
bin	114.096	0
bin	114.12933333333	0
bin	114.16266666667	0
bin	114.196	0
bin	114.22933333333	0
bin	114.26266666667	0
bin	114.296	0
bin	114.32933333333	0
bin	114.36266666667	0
bin	114.396	1
bin	114.42933333333	0
bin	114.46266666667	0
bin	114.496	0
bin	114.52933333333	0
bin	114.56266666667	0
bin	114.596	0
bin	114.62933333333	0
bin	114.66266666667	0
bin	114.696	0
bin	114.72933333333	0
bin	114.76266666667	0
bin	114.796	0
bin	114.82933333333	0
bin	114.86266666667	0
bin	114.896	0
statistic RandomGeometricGraph.rgnv[94] 	arrivalPerc:histogram
field count 1
field mean 1
field stddev nan
field sum 1
field sqrsum 1
field min 1
field max 1
attr interpolationmode  none
attr source  count(arrival)
attr title  "arrival perc, histogram"
bin	-INF	0
bin	0	0
bin	1	1
bin	2	0
statistic RandomGeometricGraph.rgnv[95] 	arrivalTime:histogram
field count 1
field mean 54.944
field stddev nan
field sum 54.944
field sqrsum 3018.843136
field min 54.944
field max 54.944
attr interpolationmode  none
attr source  arrivalTime
attr title  "arrival time, histogram"
bin	-INF	0
bin	54.444	0
bin	54.477333333333	0
bin	54.510666666667	0
bin	54.544	0
bin	54.577333333333	0
bin	54.610666666667	0
bin	54.644	0
bin	54.677333333333	0
bin	54.710666666667	0
bin	54.744	0
bin	54.777333333333	0
bin	54.810666666667	0
bin	54.844	0
bin	54.877333333333	0
bin	54.910666666667	0
bin	54.944	1
bin	54.977333333333	0
bin	55.010666666667	0
bin	55.044	0
bin	55.077333333333	0
bin	55.110666666667	0
bin	55.144	0
bin	55.177333333333	0
bin	55.210666666667	0
bin	55.244	0
bin	55.277333333333	0
bin	55.310666666667	0
bin	55.344	0
bin	55.377333333333	0
bin	55.410666666667	0
bin	55.444	0
statistic RandomGeometricGraph.rgnv[95] 	arrivalPerc:histogram
field count 1
field mean 1
field stddev nan
field sum 1
field sqrsum 1
field min 1
field max 1
attr interpolationmode  none
attr source  count(arrival)
attr title  "arrival perc, histogram"
bin	-INF	0
bin	0	0
bin	1	1
bin	2	0
statistic RandomGeometricGraph.rgnv[96] 	arrivalTime:histogram
field count 1
field mean 97.185
field stddev nan
field sum 97.185
field sqrsum 9444.924225
field min 97.185
field max 97.185
attr interpolationmode  none
attr source  arrivalTime
attr title  "arrival time, histogram"
bin	-INF	0
bin	96.685	0
bin	96.718333333333	0
bin	96.751666666667	0
bin	96.785	0
bin	96.818333333333	0
bin	96.851666666667	0
bin	96.885	0
bin	96.918333333333	0
bin	96.951666666667	0
bin	96.985	0
bin	97.018333333333	0
bin	97.051666666667	0
bin	97.085	0
bin	97.118333333333	0
bin	97.151666666667	0
bin	97.185	1
bin	97.218333333333	0
bin	97.251666666667	0
bin	97.285	0
bin	97.318333333333	0
bin	97.351666666667	0
bin	97.385	0
bin	97.418333333333	0
bin	97.451666666667	0
bin	97.485	0
bin	97.518333333333	0
bin	97.551666666667	0
bin	97.585	0
bin	97.618333333333	0
bin	97.651666666667	0
bin	97.685	0
statistic RandomGeometricGraph.rgnv[96] 	arrivalPerc:histogram
field count 1
field mean 1
field stddev nan
field sum 1
field sqrsum 1
field min 1
field max 1
attr interpolationmode  none
attr source  count(arrival)
attr title  "arrival perc, histogram"
bin	-INF	0
bin	0	0
bin	1	1
bin	2	0
statistic RandomGeometricGraph.rgnv[97] 	arrivalTime:histogram
field count 1
field mean 102.185
field stddev nan
field sum 102.185
field sqrsum 10441.774225
field min 102.185
field max 102.185
attr interpolationmode  none
attr source  arrivalTime
attr title  "arrival time, histogram"
bin	-INF	0
bin	101.685	0
bin	101.71833333333	0
bin	101.75166666667	0
bin	101.785	0
bin	101.81833333333	0
bin	101.85166666667	0
bin	101.885	0
bin	101.91833333333	0
bin	101.95166666667	0
bin	101.985	0
bin	102.01833333333	0
bin	102.05166666667	0
bin	102.085	0
bin	102.11833333333	0
bin	102.15166666667	0
bin	102.185	1
bin	102.21833333333	0
bin	102.25166666667	0
bin	102.285	0
bin	102.31833333333	0
bin	102.35166666667	0
bin	102.385	0
bin	102.41833333333	0
bin	102.45166666667	0
bin	102.485	0
bin	102.51833333333	0
bin	102.55166666667	0
bin	102.585	0
bin	102.61833333333	0
bin	102.65166666667	0
bin	102.685	0
statistic RandomGeometricGraph.rgnv[97] 	arrivalPerc:histogram
field count 1
field mean 1
field stddev nan
field sum 1
field sqrsum 1
field min 1
field max 1
attr interpolationmode  none
attr source  count(arrival)
attr title  "arrival perc, histogram"
bin	-INF	0
bin	0	0
bin	1	1
bin	2	0
statistic RandomGeometricGraph.rgnv[98] 	arrivalTime:histogram
field count 1
field mean 325.551
field stddev nan
field sum 325.551
field sqrsum 105983.453601
field min 325.551
field max 325.551
attr interpolationmode  none
attr source  arrivalTime
attr title  "arrival time, histogram"
bin	-INF	0
bin	325.051	0
bin	325.08433333333	0
bin	325.11766666667	0
bin	325.151	0
bin	325.18433333333	0
bin	325.21766666667	0
bin	325.251	0
bin	325.28433333333	0
bin	325.31766666667	0
bin	325.351	0
bin	325.38433333333	0
bin	325.41766666667	0
bin	325.451	0
bin	325.48433333333	0
bin	325.51766666667	0
bin	325.551	1
bin	325.58433333333	0
bin	325.61766666667	0
bin	325.651	0
bin	325.68433333333	0
bin	325.71766666667	0
bin	325.751	0
bin	325.78433333333	0
bin	325.81766666667	0
bin	325.851	0
bin	325.88433333333	0
bin	325.91766666667	0
bin	325.951	0
bin	325.98433333333	0
bin	326.01766666667	0
bin	326.051	0
statistic RandomGeometricGraph.rgnv[98] 	arrivalPerc:histogram
field count 1
field mean 1
field stddev nan
field sum 1
field sqrsum 1
field min 1
field max 1
attr interpolationmode  none
attr source  count(arrival)
attr title  "arrival perc, histogram"
bin	-INF	0
bin	0	0
bin	1	1
bin	2	0
statistic RandomGeometricGraph.rgnv[99] 	arrivalTime:histogram
field count 1
field mean 181.667
field stddev nan
field sum 181.667
field sqrsum 33002.898889
field min 181.667
field max 181.667
attr interpolationmode  none
attr source  arrivalTime
attr title  "arrival time, histogram"
bin	-INF	0
bin	181.167	0
bin	181.20033333333	0
bin	181.23366666667	0
bin	181.267	0
bin	181.30033333333	0
bin	181.33366666667	0
bin	181.367	0
bin	181.40033333333	0
bin	181.43366666667	0
bin	181.467	0
bin	181.50033333333	0
bin	181.53366666667	0
bin	181.567	0
bin	181.60033333333	0
bin	181.63366666667	0
bin	181.667	1
bin	181.70033333333	0
bin	181.73366666667	0
bin	181.767	0
bin	181.80033333333	0
bin	181.83366666667	0
bin	181.867	0
bin	181.90033333333	0
bin	181.93366666667	0
bin	181.967	0
bin	182.00033333333	0
bin	182.03366666667	0
bin	182.067	0
bin	182.10033333333	0
bin	182.13366666667	0
bin	182.167	0
statistic RandomGeometricGraph.rgnv[99] 	arrivalPerc:histogram
field count 1
field mean 1
field stddev nan
field sum 1
field sqrsum 1
field min 1
field max 1
attr interpolationmode  none
attr source  count(arrival)
attr title  "arrival perc, histogram"
bin	-INF	0
bin	0	0
bin	1	1
bin	2	0
