version 2
run rgg2-3-20170110-16:22:28-1704
attr configname rgg2
attr datetime 20170110-16:22:28
attr experiment rgg2
attr inifile iniFile/D001/omnetpp_15D001.ini
attr iterationvars ""
attr iterationvars2 $repetition=3
attr measurement ""
attr network blegossipprj.net.randomgeometricgraph.RandomGeometricGraph
attr processid 1704
attr repetition 3
attr replication #3
attr resultdir ../../results/D001/r15D001
attr runnumber 3
attr seedset 3
param RandomGeometricGraph.netSize 2
param RandomGeometricGraph.radius 15
param RandomGeometricGraph.rgnv[*].areaLength 14
param RandomGeometricGraph.rgnv[*].areaWidth 14

statistic RandomGeometricGraph.sc 	arrivalPercentage
field count 2
field mean 1
field stddev 0
field sum 2
field sqrsum 2
field min 1
field max 1
bin	-INF	0
bin	0	0
bin	1	2
bin	2	0
statistic RandomGeometricGraph.sc 	arrivalTime
field count 2
field mean 6.6155
field stddev 9.3557298218792
field sum 13.231
field sqrsum 175.059361
field min 0
field max 13.231
bin	-INF	0
bin	-6.6155	0
bin	-5.7334333333333	0
bin	-4.8513666666667	0
bin	-3.9693	0
bin	-3.0872333333333	0
bin	-2.2051666666667	0
bin	-1.3231	0
bin	-0.44103333333333	1
bin	0.44103333333333	0
bin	1.3231	0
bin	2.2051666666667	0
bin	3.0872333333333	0
bin	3.9693	0
bin	4.8513666666667	0
bin	5.7334333333333	0
bin	6.6155	0
bin	7.4975666666667	0
bin	8.3796333333333	0
bin	9.2617	0
bin	10.143766666667	0
bin	11.025833333333	0
bin	11.9079	0
bin	12.789966666667	1
bin	13.672033333333	0
bin	14.5541	0
bin	15.436166666667	0
bin	16.318233333333	0
bin	17.2003	0
bin	18.082366666667	0
bin	18.964433333333	0
bin	19.8465	0
statistic RandomGeometricGraph.rgnv[0] 	arrivalTime:histogram
field count 1
field mean 0
field stddev nan
field sum 0
field sqrsum 0
field min 0
field max 0
attr interpolationmode  none
attr source  arrivalTime
attr title  "arrival time, histogram"
bin	-INF	0
bin	-0.5	0
bin	-0.46666666666667	0
bin	-0.43333333333333	0
bin	-0.4	0
bin	-0.36666666666667	0
bin	-0.33333333333333	0
bin	-0.3	0
bin	-0.26666666666667	0
bin	-0.23333333333333	0
bin	-0.2	0
bin	-0.16666666666667	0
bin	-0.13333333333333	0
bin	-0.1	0
bin	-0.066666666666667	0
bin	-0.033333333333333	0
bin	0	1
bin	0.033333333333333	0
bin	0.066666666666667	0
bin	0.1	0
bin	0.13333333333333	0
bin	0.16666666666667	0
bin	0.2	0
bin	0.23333333333333	0
bin	0.26666666666667	0
bin	0.3	0
bin	0.33333333333333	0
bin	0.36666666666667	0
bin	0.4	0
bin	0.43333333333333	0
bin	0.46666666666667	0
bin	0.5	0
statistic RandomGeometricGraph.rgnv[0] 	arrivalPerc:histogram
field count 1
field mean 1
field stddev nan
field sum 1
field sqrsum 1
field min 1
field max 1
attr interpolationmode  none
attr source  count(arrival)
attr title  "arrival perc, histogram"
bin	-INF	0
bin	0	0
bin	1	1
bin	2	0
statistic RandomGeometricGraph.rgnv[1] 	arrivalTime:histogram
field count 1
field mean 13.231
field stddev nan
field sum 13.231
field sqrsum 175.059361
field min 13.231
field max 13.231
attr interpolationmode  none
attr source  arrivalTime
attr title  "arrival time, histogram"
bin	-INF	0
bin	12.731	0
bin	12.764333333333	0
bin	12.797666666667	0
bin	12.831	0
bin	12.864333333333	0
bin	12.897666666667	0
bin	12.931	0
bin	12.964333333333	0
bin	12.997666666667	0
bin	13.031	0
bin	13.064333333333	0
bin	13.097666666667	0
bin	13.131	0
bin	13.164333333333	0
bin	13.197666666667	0
bin	13.231	1
bin	13.264333333333	0
bin	13.297666666667	0
bin	13.331	0
bin	13.364333333333	0
bin	13.397666666667	0
bin	13.431	0
bin	13.464333333333	0
bin	13.497666666667	0
bin	13.531	0
bin	13.564333333333	0
bin	13.597666666667	0
bin	13.631	0
bin	13.664333333333	0
bin	13.697666666667	0
bin	13.731	0
statistic RandomGeometricGraph.rgnv[1] 	arrivalPerc:histogram
field count 1
field mean 1
field stddev nan
field sum 1
field sqrsum 1
field min 1
field max 1
attr interpolationmode  none
attr source  count(arrival)
attr title  "arrival perc, histogram"
bin	-INF	0
bin	0	0
bin	1	1
bin	2	0
