version 2
run rgg1000-16-20170110-16:45:25-8996
attr configname rgg1000
attr datetime 20170110-16:45:25
attr experiment rgg1000
attr inifile iniFile/D001/omnetpp_15D001.ini
attr iterationvars ""
attr iterationvars2 $repetition=16
attr measurement ""
attr network blegossipprj.net.randomgeometricgraph.RandomGeometricGraph
attr processid 8996
attr repetition 16
attr replication #16
attr resultdir ../../results/D001/r15D001
attr runnumber 16
attr seedset 16
param RandomGeometricGraph.netSize 1000
param RandomGeometricGraph.radius 15
param RandomGeometricGraph.rgnv[*].areaLength 316
param RandomGeometricGraph.rgnv[*].areaWidth 316

statistic RandomGeometricGraph.sc 	arrivalPercentage
field count 907
field mean 1
field stddev 0
field sum 907
field sqrsum 907
field min 1
field max 1
attr type  int
bin	-INF	0
bin	0	0
bin	1	907
bin	2	0
statistic RandomGeometricGraph.sc 	arrivalTime
field count 907
field mean 356.78794487321
field stddev 155.5900199982
field sum 323606.666
field sqrsum 137391635.72608
field min 0
field max 671.544
bin	-INF	0
bin	-82.5165	0
bin	-71.5143	0
bin	-60.5121	0
bin	-49.5099	0
bin	-38.5077	0
bin	-27.5055	0
bin	-16.5033	0
bin	-5.5011	1
bin	5.5011	1
bin	16.5033	2
bin	27.5055	2
bin	38.5077	2
bin	49.5099	2
bin	60.5121	3
bin	71.5143	4
bin	82.5165	6
bin	93.5187	11
bin	104.5209	7
bin	115.5231	13
bin	126.5253	12
bin	137.5275	14
bin	148.5297	11
bin	159.5319	17
bin	170.5341	17
bin	181.5363	23
bin	192.5385	24
bin	203.5407	27
bin	214.5429	14
bin	225.5451	26
bin	236.5473	20
bin	247.5495	648
statistic RandomGeometricGraph.rgnv[0] 	arrivalTime:histogram
field count 1
field mean 177.254
field stddev nan
field sum 177.254
field sqrsum 31418.980516
field min 177.254
field max 177.254
attr interpolationmode  none
attr source  arrivalTime
attr title  "arrival time, histogram"
bin	-INF	0
bin	176.754	0
bin	176.78733333333	0
bin	176.82066666667	0
bin	176.854	0
bin	176.88733333333	0
bin	176.92066666667	0
bin	176.954	0
bin	176.98733333333	0
bin	177.02066666667	0
bin	177.054	0
bin	177.08733333333	0
bin	177.12066666667	0
bin	177.154	0
bin	177.18733333333	0
bin	177.22066666667	0
bin	177.254	1
bin	177.28733333333	0
bin	177.32066666667	0
bin	177.354	0
bin	177.38733333333	0
bin	177.42066666667	0
bin	177.454	0
bin	177.48733333333	0
bin	177.52066666667	0
bin	177.554	0
bin	177.58733333333	0
bin	177.62066666667	0
bin	177.654	0
bin	177.68733333333	0
bin	177.72066666667	0
bin	177.754	0
statistic RandomGeometricGraph.rgnv[0] 	arrivalPerc:histogram
field count 1
field mean 1
field stddev nan
field sum 1
field sqrsum 1
field min 1
field max 1
attr interpolationmode  none
attr source  count(arrival)
attr title  "arrival perc, histogram"
bin	-INF	0
bin	0	0
bin	1	1
bin	2	0
statistic RandomGeometricGraph.rgnv[1] 	arrivalTime:histogram
field count 1
field mean 128.34
field stddev nan
field sum 128.34
field sqrsum 16471.1556
field min 128.34
field max 128.34
attr interpolationmode  none
attr source  arrivalTime
attr title  "arrival time, histogram"
bin	-INF	0
bin	127.84	0
bin	127.87333333333	0
bin	127.90666666667	0
bin	127.94	0
bin	127.97333333333	0
bin	128.00666666667	0
bin	128.04	0
bin	128.07333333333	0
bin	128.10666666667	0
bin	128.14	0
bin	128.17333333333	0
bin	128.20666666667	0
bin	128.24	0
bin	128.27333333333	0
bin	128.30666666667	0
bin	128.34	1
bin	128.37333333333	0
bin	128.40666666667	0
bin	128.44	0
bin	128.47333333333	0
bin	128.50666666667	0
bin	128.54	0
bin	128.57333333333	0
bin	128.60666666667	0
bin	128.64	0
bin	128.67333333333	0
bin	128.70666666667	0
bin	128.74	0
bin	128.77333333333	0
bin	128.80666666667	0
bin	128.84	0
statistic RandomGeometricGraph.rgnv[1] 	arrivalPerc:histogram
field count 1
field mean 1
field stddev nan
field sum 1
field sqrsum 1
field min 1
field max 1
attr interpolationmode  none
attr source  count(arrival)
attr title  "arrival perc, histogram"
bin	-INF	0
bin	0	0
bin	1	1
bin	2	0
statistic RandomGeometricGraph.rgnv[2] 	arrivalTime:histogram
field count 1
field mean 358.528
field stddev nan
field sum 358.528
field sqrsum 128542.326784
field min 358.528
field max 358.528
attr interpolationmode  none
attr source  arrivalTime
attr title  "arrival time, histogram"
bin	-INF	0
bin	358.028	0
bin	358.06133333333	0
bin	358.09466666667	0
bin	358.128	0
bin	358.16133333333	0
bin	358.19466666667	0
bin	358.228	0
bin	358.26133333333	0
bin	358.29466666667	0
bin	358.328	0
bin	358.36133333333	0
bin	358.39466666667	0
bin	358.428	0
bin	358.46133333333	0
bin	358.49466666667	0
bin	358.528	1
bin	358.56133333333	0
bin	358.59466666667	0
bin	358.628	0
bin	358.66133333333	0
bin	358.69466666667	0
bin	358.728	0
bin	358.76133333333	0
bin	358.79466666667	0
bin	358.828	0
bin	358.86133333333	0
bin	358.89466666667	0
bin	358.928	0
bin	358.96133333333	0
bin	358.99466666667	0
bin	359.028	0
statistic RandomGeometricGraph.rgnv[2] 	arrivalPerc:histogram
field count 1
field mean 1
field stddev nan
field sum 1
field sqrsum 1
field min 1
field max 1
attr interpolationmode  none
attr source  count(arrival)
attr title  "arrival perc, histogram"
bin	-INF	0
bin	0	0
bin	1	1
bin	2	0
statistic RandomGeometricGraph.rgnv[3] 	arrivalTime:histogram
field count 1
field mean 140.551
field stddev nan
field sum 140.551
field sqrsum 19754.583601
field min 140.551
field max 140.551
attr interpolationmode  none
attr source  arrivalTime
attr title  "arrival time, histogram"
bin	-INF	0
bin	140.051	0
bin	140.08433333333	0
bin	140.11766666667	0
bin	140.151	0
bin	140.18433333333	0
bin	140.21766666667	0
bin	140.251	0
bin	140.28433333333	0
bin	140.31766666667	0
bin	140.351	0
bin	140.38433333333	0
bin	140.41766666667	0
bin	140.451	0
bin	140.48433333333	0
bin	140.51766666667	0
bin	140.551	1
bin	140.58433333333	0
bin	140.61766666667	0
bin	140.651	0
bin	140.68433333333	0
bin	140.71766666667	0
bin	140.751	0
bin	140.78433333333	0
bin	140.81766666667	0
bin	140.851	0
bin	140.88433333333	0
bin	140.91766666667	0
bin	140.951	0
bin	140.98433333333	0
bin	141.01766666667	0
bin	141.051	0
statistic RandomGeometricGraph.rgnv[3] 	arrivalPerc:histogram
field count 1
field mean 1
field stddev nan
field sum 1
field sqrsum 1
field min 1
field max 1
attr interpolationmode  none
attr source  count(arrival)
attr title  "arrival perc, histogram"
bin	-INF	0
bin	0	0
bin	1	1
bin	2	0
statistic RandomGeometricGraph.rgnv[4] 	arrivalTime:histogram
field count 1
field mean 429.125
field stddev nan
field sum 429.125
field sqrsum 184148.265625
field min 429.125
field max 429.125
attr interpolationmode  none
attr source  arrivalTime
attr title  "arrival time, histogram"
bin	-INF	0
bin	428.625	0
bin	428.65833333333	0
bin	428.69166666667	0
bin	428.725	0
bin	428.75833333333	0
bin	428.79166666667	0
bin	428.825	0
bin	428.85833333333	0
bin	428.89166666667	0
bin	428.925	0
bin	428.95833333333	0
bin	428.99166666667	0
bin	429.025	0
bin	429.05833333333	0
bin	429.09166666667	0
bin	429.125	1
bin	429.15833333333	0
bin	429.19166666667	0
bin	429.225	0
bin	429.25833333333	0
bin	429.29166666667	0
bin	429.325	0
bin	429.35833333333	0
bin	429.39166666667	0
bin	429.425	0
bin	429.45833333333	0
bin	429.49166666667	0
bin	429.525	0
bin	429.55833333333	0
bin	429.59166666667	0
bin	429.625	0
statistic RandomGeometricGraph.rgnv[4] 	arrivalPerc:histogram
field count 1
field mean 1
field stddev nan
field sum 1
field sqrsum 1
field min 1
field max 1
attr interpolationmode  none
attr source  count(arrival)
attr title  "arrival perc, histogram"
bin	-INF	0
bin	0	0
bin	1	1
bin	2	0
statistic RandomGeometricGraph.rgnv[5] 	arrivalTime:histogram
field count 1
field mean 182.274
field stddev nan
field sum 182.274
field sqrsum 33223.811076
field min 182.274
field max 182.274
attr interpolationmode  none
attr source  arrivalTime
attr title  "arrival time, histogram"
bin	-INF	0
bin	181.774	0
bin	181.80733333333	0
bin	181.84066666667	0
bin	181.874	0
bin	181.90733333333	0
bin	181.94066666667	0
bin	181.974	0
bin	182.00733333333	0
bin	182.04066666667	0
bin	182.074	0
bin	182.10733333333	0
bin	182.14066666667	0
bin	182.174	0
bin	182.20733333333	0
bin	182.24066666667	0
bin	182.274	1
bin	182.30733333333	0
bin	182.34066666667	0
bin	182.374	0
bin	182.40733333333	0
bin	182.44066666667	0
bin	182.474	0
bin	182.50733333333	0
bin	182.54066666667	0
bin	182.574	0
bin	182.60733333333	0
bin	182.64066666667	0
bin	182.674	0
bin	182.70733333333	0
bin	182.74066666667	0
bin	182.774	0
statistic RandomGeometricGraph.rgnv[5] 	arrivalPerc:histogram
field count 1
field mean 1
field stddev nan
field sum 1
field sqrsum 1
field min 1
field max 1
attr interpolationmode  none
attr source  count(arrival)
attr title  "arrival perc, histogram"
bin	-INF	0
bin	0	0
bin	1	1
bin	2	0
statistic RandomGeometricGraph.rgnv[6] 	arrivalTime:histogram
field count 1
field mean 446.346
field stddev nan
field sum 446.346
field sqrsum 199224.751716
field min 446.346
field max 446.346
attr interpolationmode  none
attr source  arrivalTime
attr title  "arrival time, histogram"
bin	-INF	0
bin	445.846	0
bin	445.87933333333	0
bin	445.91266666667	0
bin	445.946	0
bin	445.97933333333	0
bin	446.01266666667	0
bin	446.046	0
bin	446.07933333333	0
bin	446.11266666667	0
bin	446.146	0
bin	446.17933333333	0
bin	446.21266666667	0
bin	446.246	0
bin	446.27933333333	0
bin	446.31266666667	0
bin	446.346	1
bin	446.37933333333	0
bin	446.41266666667	0
bin	446.446	0
bin	446.47933333333	0
bin	446.51266666667	0
bin	446.546	0
bin	446.57933333333	0
bin	446.61266666667	0
bin	446.646	0
bin	446.67933333333	0
bin	446.71266666667	0
bin	446.746	0
bin	446.77933333333	0
bin	446.81266666667	0
bin	446.846	0
statistic RandomGeometricGraph.rgnv[6] 	arrivalPerc:histogram
field count 1
field mean 1
field stddev nan
field sum 1
field sqrsum 1
field min 1
field max 1
attr interpolationmode  none
attr source  count(arrival)
attr title  "arrival perc, histogram"
bin	-INF	0
bin	0	0
bin	1	1
bin	2	0
statistic RandomGeometricGraph.rgnv[7] 	arrivalTime:histogram
field count 1
field mean 566.465
field stddev nan
field sum 566.465
field sqrsum 320882.596225
field min 566.465
field max 566.465
attr interpolationmode  none
attr source  arrivalTime
attr title  "arrival time, histogram"
bin	-INF	0
bin	565.965	0
bin	565.99833333333	0
bin	566.03166666667	0
bin	566.065	0
bin	566.09833333333	0
bin	566.13166666667	0
bin	566.165	0
bin	566.19833333333	0
bin	566.23166666667	0
bin	566.265	0
bin	566.29833333333	0
bin	566.33166666667	0
bin	566.365	0
bin	566.39833333333	0
bin	566.43166666667	0
bin	566.465	1
bin	566.49833333333	0
bin	566.53166666667	0
bin	566.565	0
bin	566.59833333333	0
bin	566.63166666667	0
bin	566.665	0
bin	566.69833333333	0
bin	566.73166666667	0
bin	566.765	0
bin	566.79833333333	0
bin	566.83166666667	0
bin	566.865	0
bin	566.89833333333	0
bin	566.93166666667	0
bin	566.965	0
statistic RandomGeometricGraph.rgnv[7] 	arrivalPerc:histogram
field count 1
field mean 1
field stddev nan
field sum 1
field sqrsum 1
field min 1
field max 1
attr interpolationmode  none
attr source  count(arrival)
attr title  "arrival perc, histogram"
bin	-INF	0
bin	0	0
bin	1	1
bin	2	0
statistic RandomGeometricGraph.rgnv[8] 	arrivalTime:histogram
field count 1
field mean 552.023
field stddev nan
field sum 552.023
field sqrsum 304729.392529
field min 552.023
field max 552.023
attr interpolationmode  none
attr source  arrivalTime
attr title  "arrival time, histogram"
bin	-INF	0
bin	551.523	0
bin	551.55633333333	0
bin	551.58966666667	0
bin	551.623	0
bin	551.65633333333	0
bin	551.68966666667	0
bin	551.723	0
bin	551.75633333333	0
bin	551.78966666667	0
bin	551.823	0
bin	551.85633333333	0
bin	551.88966666667	0
bin	551.923	0
bin	551.95633333333	0
bin	551.98966666667	0
bin	552.023	1
bin	552.05633333333	0
bin	552.08966666667	0
bin	552.123	0
bin	552.15633333333	0
bin	552.18966666667	0
bin	552.223	0
bin	552.25633333333	0
bin	552.28966666667	0
bin	552.323	0
bin	552.35633333333	0
bin	552.38966666667	0
bin	552.423	0
bin	552.45633333333	0
bin	552.48966666667	0
bin	552.523	0
statistic RandomGeometricGraph.rgnv[8] 	arrivalPerc:histogram
field count 1
field mean 1
field stddev nan
field sum 1
field sqrsum 1
field min 1
field max 1
attr interpolationmode  none
attr source  count(arrival)
attr title  "arrival perc, histogram"
bin	-INF	0
bin	0	0
bin	1	1
bin	2	0
statistic RandomGeometricGraph.rgnv[9] 	arrivalTime:histogram
field count 1
field mean 387.98
field stddev nan
field sum 387.98
field sqrsum 150528.4804
field min 387.98
field max 387.98
attr interpolationmode  none
attr source  arrivalTime
attr title  "arrival time, histogram"
bin	-INF	0
bin	387.48	0
bin	387.51333333333	0
bin	387.54666666667	0
bin	387.58	0
bin	387.61333333333	0
bin	387.64666666667	0
bin	387.68	0
bin	387.71333333333	0
bin	387.74666666667	0
bin	387.78	0
bin	387.81333333333	0
bin	387.84666666667	0
bin	387.88	0
bin	387.91333333333	0
bin	387.94666666667	0
bin	387.98	1
bin	388.01333333333	0
bin	388.04666666667	0
bin	388.08	0
bin	388.11333333333	0
bin	388.14666666667	0
bin	388.18	0
bin	388.21333333333	0
bin	388.24666666667	0
bin	388.28	0
bin	388.31333333333	0
bin	388.34666666667	0
bin	388.38	0
bin	388.41333333333	0
bin	388.44666666667	0
bin	388.48	0
statistic RandomGeometricGraph.rgnv[9] 	arrivalPerc:histogram
field count 1
field mean 1
field stddev nan
field sum 1
field sqrsum 1
field min 1
field max 1
attr interpolationmode  none
attr source  count(arrival)
attr title  "arrival perc, histogram"
bin	-INF	0
bin	0	0
bin	1	1
bin	2	0
statistic RandomGeometricGraph.rgnv[10] 	arrivalTime:histogram
field count 1
field mean 292.363
field stddev nan
field sum 292.363
field sqrsum 85476.123769
field min 292.363
field max 292.363
attr interpolationmode  none
attr source  arrivalTime
attr title  "arrival time, histogram"
bin	-INF	0
bin	291.863	0
bin	291.89633333333	0
bin	291.92966666667	0
bin	291.963	0
bin	291.99633333333	0
bin	292.02966666667	0
bin	292.063	0
bin	292.09633333333	0
bin	292.12966666667	0
bin	292.163	0
bin	292.19633333333	0
bin	292.22966666667	0
bin	292.263	0
bin	292.29633333333	0
bin	292.32966666667	0
bin	292.363	1
bin	292.39633333333	0
bin	292.42966666667	0
bin	292.463	0
bin	292.49633333333	0
bin	292.52966666667	0
bin	292.563	0
bin	292.59633333333	0
bin	292.62966666667	0
bin	292.663	0
bin	292.69633333333	0
bin	292.72966666667	0
bin	292.763	0
bin	292.79633333333	0
bin	292.82966666667	0
bin	292.863	0
statistic RandomGeometricGraph.rgnv[10] 	arrivalPerc:histogram
field count 1
field mean 1
field stddev nan
field sum 1
field sqrsum 1
field min 1
field max 1
attr interpolationmode  none
attr source  count(arrival)
attr title  "arrival perc, histogram"
bin	-INF	0
bin	0	0
bin	1	1
bin	2	0
statistic RandomGeometricGraph.rgnv[11] 	arrivalTime:histogram
field count 1
field mean 382.98
field stddev nan
field sum 382.98
field sqrsum 146673.6804
field min 382.98
field max 382.98
attr interpolationmode  none
attr source  arrivalTime
attr title  "arrival time, histogram"
bin	-INF	0
bin	382.48	0
bin	382.51333333333	0
bin	382.54666666667	0
bin	382.58	0
bin	382.61333333333	0
bin	382.64666666667	0
bin	382.68	0
bin	382.71333333333	0
bin	382.74666666667	0
bin	382.78	0
bin	382.81333333333	0
bin	382.84666666667	0
bin	382.88	0
bin	382.91333333333	0
bin	382.94666666667	0
bin	382.98	1
bin	383.01333333333	0
bin	383.04666666667	0
bin	383.08	0
bin	383.11333333333	0
bin	383.14666666667	0
bin	383.18	0
bin	383.21333333333	0
bin	383.24666666667	0
bin	383.28	0
bin	383.31333333333	0
bin	383.34666666667	0
bin	383.38	0
bin	383.41333333333	0
bin	383.44666666667	0
bin	383.48	0
statistic RandomGeometricGraph.rgnv[11] 	arrivalPerc:histogram
field count 1
field mean 1
field stddev nan
field sum 1
field sqrsum 1
field min 1
field max 1
attr interpolationmode  none
attr source  count(arrival)
attr title  "arrival perc, histogram"
bin	-INF	0
bin	0	0
bin	1	1
bin	2	0
statistic RandomGeometricGraph.rgnv[12] 	arrivalTime:histogram
field count 1
field mean 421.884
field stddev nan
field sum 421.884
field sqrsum 177986.109456
field min 421.884
field max 421.884
attr interpolationmode  none
attr source  arrivalTime
attr title  "arrival time, histogram"
bin	-INF	0
bin	421.384	0
bin	421.41733333333	0
bin	421.45066666667	0
bin	421.484	0
bin	421.51733333333	0
bin	421.55066666667	0
bin	421.584	0
bin	421.61733333333	0
bin	421.65066666667	0
bin	421.684	0
bin	421.71733333333	0
bin	421.75066666667	0
bin	421.784	0
bin	421.81733333333	0
bin	421.85066666667	0
bin	421.884	1
bin	421.91733333333	0
bin	421.95066666667	0
bin	421.984	0
bin	422.01733333333	0
bin	422.05066666667	0
bin	422.084	0
bin	422.11733333333	0
bin	422.15066666667	0
bin	422.184	0
bin	422.21733333333	0
bin	422.25066666667	0
bin	422.284	0
bin	422.31733333333	0
bin	422.35066666667	0
bin	422.384	0
statistic RandomGeometricGraph.rgnv[12] 	arrivalPerc:histogram
field count 1
field mean 1
field stddev nan
field sum 1
field sqrsum 1
field min 1
field max 1
attr interpolationmode  none
attr source  count(arrival)
attr title  "arrival perc, histogram"
bin	-INF	0
bin	0	0
bin	1	1
bin	2	0
statistic RandomGeometricGraph.rgnv[13] 	arrivalTime:histogram
field count 1
field mean 465.828
field stddev nan
field sum 465.828
field sqrsum 216995.725584
field min 465.828
field max 465.828
attr interpolationmode  none
attr source  arrivalTime
attr title  "arrival time, histogram"
bin	-INF	0
bin	465.328	0
bin	465.36133333333	0
bin	465.39466666667	0
bin	465.428	0
bin	465.46133333333	0
bin	465.49466666667	0
bin	465.528	0
bin	465.56133333333	0
bin	465.59466666667	0
bin	465.628	0
bin	465.66133333333	0
bin	465.69466666667	0
bin	465.728	0
bin	465.76133333333	0
bin	465.79466666667	0
bin	465.828	1
bin	465.86133333333	0
bin	465.89466666667	0
bin	465.928	0
bin	465.96133333333	0
bin	465.99466666667	0
bin	466.028	0
bin	466.06133333333	0
bin	466.09466666667	0
bin	466.128	0
bin	466.16133333333	0
bin	466.19466666667	0
bin	466.228	0
bin	466.26133333333	0
bin	466.29466666667	0
bin	466.328	0
statistic RandomGeometricGraph.rgnv[13] 	arrivalPerc:histogram
field count 1
field mean 1
field stddev nan
field sum 1
field sqrsum 1
field min 1
field max 1
attr interpolationmode  none
attr source  count(arrival)
attr title  "arrival perc, histogram"
bin	-INF	0
bin	0	0
bin	1	1
bin	2	0
statistic RandomGeometricGraph.rgnv[14] 	arrivalTime:histogram
field count 1
field mean 238.409
field stddev nan
field sum 238.409
field sqrsum 56838.851281
field min 238.409
field max 238.409
attr interpolationmode  none
attr source  arrivalTime
attr title  "arrival time, histogram"
bin	-INF	0
bin	237.909	0
bin	237.94233333333	0
bin	237.97566666667	0
bin	238.009	0
bin	238.04233333333	0
bin	238.07566666667	0
bin	238.109	0
bin	238.14233333333	0
bin	238.17566666667	0
bin	238.209	0
bin	238.24233333333	0
bin	238.27566666667	0
bin	238.309	0
bin	238.34233333333	0
bin	238.37566666667	0
bin	238.409	1
bin	238.44233333333	0
bin	238.47566666667	0
bin	238.509	0
bin	238.54233333333	0
bin	238.57566666667	0
bin	238.609	0
bin	238.64233333333	0
bin	238.67566666667	0
bin	238.709	0
bin	238.74233333333	0
bin	238.77566666667	0
bin	238.809	0
bin	238.84233333333	0
bin	238.87566666667	0
bin	238.909	0
statistic RandomGeometricGraph.rgnv[14] 	arrivalPerc:histogram
field count 1
field mean 1
field stddev nan
field sum 1
field sqrsum 1
field min 1
field max 1
attr interpolationmode  none
attr source  count(arrival)
attr title  "arrival perc, histogram"
bin	-INF	0
bin	0	0
bin	1	1
bin	2	0
statistic RandomGeometricGraph.rgnv[15] 	arrivalTime:histogram
field count 1
field mean 454.135
field stddev nan
field sum 454.135
field sqrsum 206238.598225
field min 454.135
field max 454.135
attr interpolationmode  none
attr source  arrivalTime
attr title  "arrival time, histogram"
bin	-INF	0
bin	453.635	0
bin	453.66833333333	0
bin	453.70166666667	0
bin	453.735	0
bin	453.76833333333	0
bin	453.80166666667	0
bin	453.835	0
bin	453.86833333333	0
bin	453.90166666667	0
bin	453.935	0
bin	453.96833333333	0
bin	454.00166666667	0
bin	454.035	0
bin	454.06833333333	0
bin	454.10166666667	0
bin	454.135	1
bin	454.16833333333	0
bin	454.20166666667	0
bin	454.235	0
bin	454.26833333333	0
bin	454.30166666667	0
bin	454.335	0
bin	454.36833333333	0
bin	454.40166666667	0
bin	454.435	0
bin	454.46833333333	0
bin	454.50166666667	0
bin	454.535	0
bin	454.56833333333	0
bin	454.60166666667	0
bin	454.635	0
statistic RandomGeometricGraph.rgnv[15] 	arrivalPerc:histogram
field count 1
field mean 1
field stddev nan
field sum 1
field sqrsum 1
field min 1
field max 1
attr interpolationmode  none
attr source  count(arrival)
attr title  "arrival perc, histogram"
bin	-INF	0
bin	0	0
bin	1	1
bin	2	0
statistic RandomGeometricGraph.rgnv[16] 	arrivalTime:histogram
field count 1
field mean 201.716
field stddev nan
field sum 201.716
field sqrsum 40689.344656
field min 201.716
field max 201.716
attr interpolationmode  none
attr source  arrivalTime
attr title  "arrival time, histogram"
bin	-INF	0
bin	201.216	0
bin	201.24933333333	0
bin	201.28266666667	0
bin	201.316	0
bin	201.34933333333	0
bin	201.38266666667	0
bin	201.416	0
bin	201.44933333333	0
bin	201.48266666667	0
bin	201.516	0
bin	201.54933333333	0
bin	201.58266666667	0
bin	201.616	0
bin	201.64933333333	0
bin	201.68266666667	0
bin	201.716	1
bin	201.74933333333	0
bin	201.78266666667	0
bin	201.816	0
bin	201.84933333333	0
bin	201.88266666667	0
bin	201.916	0
bin	201.94933333333	0
bin	201.98266666667	0
bin	202.016	0
bin	202.04933333333	0
bin	202.08266666667	0
bin	202.116	0
bin	202.14933333333	0
bin	202.18266666667	0
bin	202.216	0
statistic RandomGeometricGraph.rgnv[16] 	arrivalPerc:histogram
field count 1
field mean 1
field stddev nan
field sum 1
field sqrsum 1
field min 1
field max 1
attr interpolationmode  none
attr source  count(arrival)
attr title  "arrival perc, histogram"
bin	-INF	0
bin	0	0
bin	1	1
bin	2	0
statistic RandomGeometricGraph.rgnv[17] 	arrivalTime:histogram
field count 1
field mean 177.274
field stddev nan
field sum 177.274
field sqrsum 31426.071076
field min 177.274
field max 177.274
attr interpolationmode  none
attr source  arrivalTime
attr title  "arrival time, histogram"
bin	-INF	0
bin	176.774	0
bin	176.80733333333	0
bin	176.84066666667	0
bin	176.874	0
bin	176.90733333333	0
bin	176.94066666667	0
bin	176.974	0
bin	177.00733333333	0
bin	177.04066666667	0
bin	177.074	0
bin	177.10733333333	0
bin	177.14066666667	0
bin	177.174	0
bin	177.20733333333	0
bin	177.24066666667	0
bin	177.274	1
bin	177.30733333333	0
bin	177.34066666667	0
bin	177.374	0
bin	177.40733333333	0
bin	177.44066666667	0
bin	177.474	0
bin	177.50733333333	0
bin	177.54066666667	0
bin	177.574	0
bin	177.60733333333	0
bin	177.64066666667	0
bin	177.674	0
bin	177.70733333333	0
bin	177.74066666667	0
bin	177.774	0
statistic RandomGeometricGraph.rgnv[17] 	arrivalPerc:histogram
field count 1
field mean 1
field stddev nan
field sum 1
field sqrsum 1
field min 1
field max 1
attr interpolationmode  none
attr source  count(arrival)
attr title  "arrival perc, histogram"
bin	-INF	0
bin	0	0
bin	1	1
bin	2	0
statistic RandomGeometricGraph.rgnv[18] 	arrivalTime:histogram
field count 1
field mean 172.244
field stddev nan
field sum 172.244
field sqrsum 29667.995536
field min 172.244
field max 172.244
attr interpolationmode  none
attr source  arrivalTime
attr title  "arrival time, histogram"
bin	-INF	0
bin	171.744	0
bin	171.77733333333	0
bin	171.81066666667	0
bin	171.844	0
bin	171.87733333333	0
bin	171.91066666667	0
bin	171.944	0
bin	171.97733333333	0
bin	172.01066666667	0
bin	172.044	0
bin	172.07733333333	0
bin	172.11066666667	0
bin	172.144	0
bin	172.17733333333	0
bin	172.21066666667	0
bin	172.244	1
bin	172.27733333333	0
bin	172.31066666667	0
bin	172.344	0
bin	172.37733333333	0
bin	172.41066666667	0
bin	172.444	0
bin	172.47733333333	0
bin	172.51066666667	0
bin	172.544	0
bin	172.57733333333	0
bin	172.61066666667	0
bin	172.644	0
bin	172.67733333333	0
bin	172.71066666667	0
bin	172.744	0
statistic RandomGeometricGraph.rgnv[18] 	arrivalPerc:histogram
field count 1
field mean 1
field stddev nan
field sum 1
field sqrsum 1
field min 1
field max 1
attr interpolationmode  none
attr source  count(arrival)
attr title  "arrival perc, histogram"
bin	-INF	0
bin	0	0
bin	1	1
bin	2	0
statistic RandomGeometricGraph.rgnv[19] 	arrivalTime:histogram
field count 0
field mean nan
field stddev nan
field sum 0
field sqrsum 0
field min nan
field max nan
attr interpolationmode  none
attr source  arrivalTime
attr title  "arrival time, histogram"
bin	-INF	0
bin	-0.5	0
bin	-0.46666666666667	0
bin	-0.43333333333333	0
bin	-0.4	0
bin	-0.36666666666667	0
bin	-0.33333333333333	0
bin	-0.3	0
bin	-0.26666666666667	0
bin	-0.23333333333333	0
bin	-0.2	0
bin	-0.16666666666667	0
bin	-0.13333333333333	0
bin	-0.1	0
bin	-0.066666666666667	0
bin	-0.033333333333333	0
bin	0	0
bin	0.033333333333333	0
bin	0.066666666666667	0
bin	0.1	0
bin	0.13333333333333	0
bin	0.16666666666667	0
bin	0.2	0
bin	0.23333333333333	0
bin	0.26666666666667	0
bin	0.3	0
bin	0.33333333333333	0
bin	0.36666666666667	0
bin	0.4	0
bin	0.43333333333333	0
bin	0.46666666666667	0
bin	0.5	0
statistic RandomGeometricGraph.rgnv[19] 	arrivalPerc:histogram
field count 0
field mean nan
field stddev nan
field sum 0
field sqrsum 0
field min nan
field max nan
attr interpolationmode  none
attr source  count(arrival)
attr title  "arrival perc, histogram"
bin	-INF	0
bin	-0.5	0
bin	-0.46666666666667	0
bin	-0.43333333333333	0
bin	-0.4	0
bin	-0.36666666666667	0
bin	-0.33333333333333	0
bin	-0.3	0
bin	-0.26666666666667	0
bin	-0.23333333333333	0
bin	-0.2	0
bin	-0.16666666666667	0
bin	-0.13333333333333	0
bin	-0.1	0
bin	-0.066666666666667	0
bin	-0.033333333333333	0
bin	0	0
bin	0.033333333333333	0
bin	0.066666666666667	0
bin	0.1	0
bin	0.13333333333333	0
bin	0.16666666666667	0
bin	0.2	0
bin	0.23333333333333	0
bin	0.26666666666667	0
bin	0.3	0
bin	0.33333333333333	0
bin	0.36666666666667	0
bin	0.4	0
bin	0.43333333333333	0
bin	0.46666666666667	0
bin	0.5	0
statistic RandomGeometricGraph.rgnv[20] 	arrivalTime:histogram
field count 1
field mean 329.056
field stddev nan
field sum 329.056
field sqrsum 108277.851136
field min 329.056
field max 329.056
attr interpolationmode  none
attr source  arrivalTime
attr title  "arrival time, histogram"
bin	-INF	0
bin	328.556	0
bin	328.58933333333	0
bin	328.62266666667	0
bin	328.656	0
bin	328.68933333333	0
bin	328.72266666667	0
bin	328.756	0
bin	328.78933333333	0
bin	328.82266666667	0
bin	328.856	0
bin	328.88933333333	0
bin	328.92266666667	0
bin	328.956	0
bin	328.98933333333	0
bin	329.02266666667	0
bin	329.056	1
bin	329.08933333333	0
bin	329.12266666667	0
bin	329.156	0
bin	329.18933333333	0
bin	329.22266666667	0
bin	329.256	0
bin	329.28933333333	0
bin	329.32266666667	0
bin	329.356	0
bin	329.38933333333	0
bin	329.42266666667	0
bin	329.456	0
bin	329.48933333333	0
bin	329.52266666667	0
bin	329.556	0
statistic RandomGeometricGraph.rgnv[20] 	arrivalPerc:histogram
field count 1
field mean 1
field stddev nan
field sum 1
field sqrsum 1
field min 1
field max 1
attr interpolationmode  none
attr source  count(arrival)
attr title  "arrival perc, histogram"
bin	-INF	0
bin	0	0
bin	1	1
bin	2	0
statistic RandomGeometricGraph.rgnv[21] 	arrivalTime:histogram
field count 1
field mean 98.858
field stddev nan
field sum 98.858
field sqrsum 9772.904164
field min 98.858
field max 98.858
attr interpolationmode  none
attr source  arrivalTime
attr title  "arrival time, histogram"
bin	-INF	0
bin	98.358	0
bin	98.391333333333	0
bin	98.424666666667	0
bin	98.458	0
bin	98.491333333333	0
bin	98.524666666667	0
bin	98.558	0
bin	98.591333333333	0
bin	98.624666666667	0
bin	98.658	0
bin	98.691333333333	0
bin	98.724666666667	0
bin	98.758	0
bin	98.791333333333	0
bin	98.824666666667	0
bin	98.858	1
bin	98.891333333333	0
bin	98.924666666667	0
bin	98.958	0
bin	98.991333333333	0
bin	99.024666666667	0
bin	99.058	0
bin	99.091333333333	0
bin	99.124666666667	0
bin	99.158	0
bin	99.191333333333	0
bin	99.224666666667	0
bin	99.258	0
bin	99.291333333333	0
bin	99.324666666667	0
bin	99.358	0
statistic RandomGeometricGraph.rgnv[21] 	arrivalPerc:histogram
field count 1
field mean 1
field stddev nan
field sum 1
field sqrsum 1
field min 1
field max 1
attr interpolationmode  none
attr source  count(arrival)
attr title  "arrival perc, histogram"
bin	-INF	0
bin	0	0
bin	1	1
bin	2	0
statistic RandomGeometricGraph.rgnv[22] 	arrivalTime:histogram
field count 1
field mean 182.264
field stddev nan
field sum 182.264
field sqrsum 33220.165696
field min 182.264
field max 182.264
attr interpolationmode  none
attr source  arrivalTime
attr title  "arrival time, histogram"
bin	-INF	0
bin	181.764	0
bin	181.79733333333	0
bin	181.83066666667	0
bin	181.864	0
bin	181.89733333333	0
bin	181.93066666667	0
bin	181.964	0
bin	181.99733333333	0
bin	182.03066666667	0
bin	182.064	0
bin	182.09733333333	0
bin	182.13066666667	0
bin	182.164	0
bin	182.19733333333	0
bin	182.23066666667	0
bin	182.264	1
bin	182.29733333333	0
bin	182.33066666667	0
bin	182.364	0
bin	182.39733333333	0
bin	182.43066666667	0
bin	182.464	0
bin	182.49733333333	0
bin	182.53066666667	0
bin	182.564	0
bin	182.59733333333	0
bin	182.63066666667	0
bin	182.664	0
bin	182.69733333333	0
bin	182.73066666667	0
bin	182.764	0
statistic RandomGeometricGraph.rgnv[22] 	arrivalPerc:histogram
field count 1
field mean 1
field stddev nan
field sum 1
field sqrsum 1
field min 1
field max 1
attr interpolationmode  none
attr source  count(arrival)
attr title  "arrival perc, histogram"
bin	-INF	0
bin	0	0
bin	1	1
bin	2	0
statistic RandomGeometricGraph.rgnv[23] 	arrivalTime:histogram
field count 1
field mean 145.561
field stddev nan
field sum 145.561
field sqrsum 21188.004721
field min 145.561
field max 145.561
attr interpolationmode  none
attr source  arrivalTime
attr title  "arrival time, histogram"
bin	-INF	0
bin	145.061	0
bin	145.09433333333	0
bin	145.12766666667	0
bin	145.161	0
bin	145.19433333333	0
bin	145.22766666667	0
bin	145.261	0
bin	145.29433333333	0
bin	145.32766666667	0
bin	145.361	0
bin	145.39433333333	0
bin	145.42766666667	0
bin	145.461	0
bin	145.49433333333	0
bin	145.52766666667	0
bin	145.561	1
bin	145.59433333333	0
bin	145.62766666667	0
bin	145.661	0
bin	145.69433333333	0
bin	145.72766666667	0
bin	145.761	0
bin	145.79433333333	0
bin	145.82766666667	0
bin	145.861	0
bin	145.89433333333	0
bin	145.92766666667	0
bin	145.961	0
bin	145.99433333333	0
bin	146.02766666667	0
bin	146.061	0
statistic RandomGeometricGraph.rgnv[23] 	arrivalPerc:histogram
field count 1
field mean 1
field stddev nan
field sum 1
field sqrsum 1
field min 1
field max 1
attr interpolationmode  none
attr source  count(arrival)
attr title  "arrival perc, histogram"
bin	-INF	0
bin	0	0
bin	1	1
bin	2	0
statistic RandomGeometricGraph.rgnv[24] 	arrivalTime:histogram
field count 1
field mean 549.204
field stddev nan
field sum 549.204
field sqrsum 301625.033616
field min 549.204
field max 549.204
attr interpolationmode  none
attr source  arrivalTime
attr title  "arrival time, histogram"
bin	-INF	0
bin	548.704	0
bin	548.73733333333	0
bin	548.77066666667	0
bin	548.804	0
bin	548.83733333333	0
bin	548.87066666667	0
bin	548.904	0
bin	548.93733333333	0
bin	548.97066666667	0
bin	549.004	0
bin	549.03733333333	0
bin	549.07066666667	0
bin	549.104	0
bin	549.13733333333	0
bin	549.17066666667	0
bin	549.204	1
bin	549.23733333333	0
bin	549.27066666667	0
bin	549.304	0
bin	549.33733333333	0
bin	549.37066666667	0
bin	549.404	0
bin	549.43733333333	0
bin	549.47066666667	0
bin	549.504	0
bin	549.53733333333	0
bin	549.57066666667	0
bin	549.604	0
bin	549.63733333333	0
bin	549.67066666667	0
bin	549.704	0
statistic RandomGeometricGraph.rgnv[24] 	arrivalPerc:histogram
field count 1
field mean 1
field stddev nan
field sum 1
field sqrsum 1
field min 1
field max 1
attr interpolationmode  none
attr source  count(arrival)
attr title  "arrival perc, histogram"
bin	-INF	0
bin	0	0
bin	1	1
bin	2	0
statistic RandomGeometricGraph.rgnv[25] 	arrivalTime:histogram
field count 1
field mean 255.66
field stddev nan
field sum 255.66
field sqrsum 65362.0356
field min 255.66
field max 255.66
attr interpolationmode  none
attr source  arrivalTime
attr title  "arrival time, histogram"
bin	-INF	0
bin	255.16	0
bin	255.19333333333	0
bin	255.22666666667	0
bin	255.26	0
bin	255.29333333333	0
bin	255.32666666667	0
bin	255.36	0
bin	255.39333333333	0
bin	255.42666666667	0
bin	255.46	0
bin	255.49333333333	0
bin	255.52666666667	0
bin	255.56	0
bin	255.59333333333	0
bin	255.62666666667	0
bin	255.66	1
bin	255.69333333333	0
bin	255.72666666667	0
bin	255.76	0
bin	255.79333333333	0
bin	255.82666666667	0
bin	255.86	0
bin	255.89333333333	0
bin	255.92666666667	0
bin	255.96	0
bin	255.99333333333	0
bin	256.02666666667	0
bin	256.06	0
bin	256.09333333333	0
bin	256.12666666667	0
bin	256.16	0
statistic RandomGeometricGraph.rgnv[25] 	arrivalPerc:histogram
field count 1
field mean 1
field stddev nan
field sum 1
field sqrsum 1
field min 1
field max 1
attr interpolationmode  none
attr source  count(arrival)
attr title  "arrival perc, histogram"
bin	-INF	0
bin	0	0
bin	1	1
bin	2	0
statistic RandomGeometricGraph.rgnv[26] 	arrivalTime:histogram
field count 1
field mean 108.878
field stddev nan
field sum 108.878
field sqrsum 11854.418884
field min 108.878
field max 108.878
attr interpolationmode  none
attr source  arrivalTime
attr title  "arrival time, histogram"
bin	-INF	0
bin	108.378	0
bin	108.41133333333	0
bin	108.44466666667	0
bin	108.478	0
bin	108.51133333333	0
bin	108.54466666667	0
bin	108.578	0
bin	108.61133333333	0
bin	108.64466666667	0
bin	108.678	0
bin	108.71133333333	0
bin	108.74466666667	0
bin	108.778	0
bin	108.81133333333	0
bin	108.84466666667	0
bin	108.878	1
bin	108.91133333333	0
bin	108.94466666667	0
bin	108.978	0
bin	109.01133333333	0
bin	109.04466666667	0
bin	109.078	0
bin	109.11133333333	0
bin	109.14466666667	0
bin	109.178	0
bin	109.21133333333	0
bin	109.24466666667	0
bin	109.278	0
bin	109.31133333333	0
bin	109.34466666667	0
bin	109.378	0
statistic RandomGeometricGraph.rgnv[26] 	arrivalPerc:histogram
field count 1
field mean 1
field stddev nan
field sum 1
field sqrsum 1
field min 1
field max 1
attr interpolationmode  none
attr source  count(arrival)
attr title  "arrival perc, histogram"
bin	-INF	0
bin	0	0
bin	1	1
bin	2	0
statistic RandomGeometricGraph.rgnv[27] 	arrivalTime:histogram
field count 1
field mean 466.386
field stddev nan
field sum 466.386
field sqrsum 217515.900996
field min 466.386
field max 466.386
attr interpolationmode  none
attr source  arrivalTime
attr title  "arrival time, histogram"
bin	-INF	0
bin	465.886	0
bin	465.91933333333	0
bin	465.95266666667	0
bin	465.986	0
bin	466.01933333333	0
bin	466.05266666667	0
bin	466.086	0
bin	466.11933333333	0
bin	466.15266666667	0
bin	466.186	0
bin	466.21933333333	0
bin	466.25266666667	0
bin	466.286	0
bin	466.31933333333	0
bin	466.35266666667	0
bin	466.386	1
bin	466.41933333333	0
bin	466.45266666667	0
bin	466.486	0
bin	466.51933333333	0
bin	466.55266666667	0
bin	466.586	0
bin	466.61933333333	0
bin	466.65266666667	0
bin	466.686	0
bin	466.71933333333	0
bin	466.75266666667	0
bin	466.786	0
bin	466.81933333333	0
bin	466.85266666667	0
bin	466.886	0
statistic RandomGeometricGraph.rgnv[27] 	arrivalPerc:histogram
field count 1
field mean 1
field stddev nan
field sum 1
field sqrsum 1
field min 1
field max 1
attr interpolationmode  none
attr source  count(arrival)
attr title  "arrival perc, histogram"
bin	-INF	0
bin	0	0
bin	1	1
bin	2	0
statistic RandomGeometricGraph.rgnv[28] 	arrivalTime:histogram
field count 1
field mean 534.772
field stddev nan
field sum 534.772
field sqrsum 285981.091984
field min 534.772
field max 534.772
attr interpolationmode  none
attr source  arrivalTime
attr title  "arrival time, histogram"
bin	-INF	0
bin	534.272	0
bin	534.30533333333	0
bin	534.33866666667	0
bin	534.372	0
bin	534.40533333333	0
bin	534.43866666667	0
bin	534.472	0
bin	534.50533333333	0
bin	534.53866666667	0
bin	534.572	0
bin	534.60533333333	0
bin	534.63866666667	0
bin	534.672	0
bin	534.70533333333	0
bin	534.73866666667	0
bin	534.772	1
bin	534.80533333333	0
bin	534.83866666667	0
bin	534.872	0
bin	534.90533333333	0
bin	534.93866666667	0
bin	534.972	0
bin	535.00533333333	0
bin	535.03866666667	0
bin	535.072	0
bin	535.10533333333	0
bin	535.13866666667	0
bin	535.172	0
bin	535.20533333333	0
bin	535.23866666667	0
bin	535.272	0
statistic RandomGeometricGraph.rgnv[28] 	arrivalPerc:histogram
field count 1
field mean 1
field stddev nan
field sum 1
field sqrsum 1
field min 1
field max 1
attr interpolationmode  none
attr source  count(arrival)
attr title  "arrival perc, histogram"
bin	-INF	0
bin	0	0
bin	1	1
bin	2	0
statistic RandomGeometricGraph.rgnv[29] 	arrivalTime:histogram
field count 1
field mean 446.356
field stddev nan
field sum 446.356
field sqrsum 199233.678736
field min 446.356
field max 446.356
attr interpolationmode  none
attr source  arrivalTime
attr title  "arrival time, histogram"
bin	-INF	0
bin	445.856	0
bin	445.88933333333	0
bin	445.92266666667	0
bin	445.956	0
bin	445.98933333333	0
bin	446.02266666667	0
bin	446.056	0
bin	446.08933333333	0
bin	446.12266666667	0
bin	446.156	0
bin	446.18933333333	0
bin	446.22266666667	0
bin	446.256	0
bin	446.28933333333	0
bin	446.32266666667	0
bin	446.356	1
bin	446.38933333333	0
bin	446.42266666667	0
bin	446.456	0
bin	446.48933333333	0
bin	446.52266666667	0
bin	446.556	0
bin	446.58933333333	0
bin	446.62266666667	0
bin	446.656	0
bin	446.68933333333	0
bin	446.72266666667	0
bin	446.756	0
bin	446.78933333333	0
bin	446.82266666667	0
bin	446.856	0
statistic RandomGeometricGraph.rgnv[29] 	arrivalPerc:histogram
field count 1
field mean 1
field stddev nan
field sum 1
field sqrsum 1
field min 1
field max 1
attr interpolationmode  none
attr source  count(arrival)
attr title  "arrival perc, histogram"
bin	-INF	0
bin	0	0
bin	1	1
bin	2	0
statistic RandomGeometricGraph.rgnv[30] 	arrivalTime:histogram
field count 1
field mean 267.881
field stddev nan
field sum 267.881
field sqrsum 71760.230161
field min 267.881
field max 267.881
attr interpolationmode  none
attr source  arrivalTime
attr title  "arrival time, histogram"
bin	-INF	0
bin	267.381	0
bin	267.41433333333	0
bin	267.44766666667	0
bin	267.481	0
bin	267.51433333333	0
bin	267.54766666667	0
bin	267.581	0
bin	267.61433333333	0
bin	267.64766666667	0
bin	267.681	0
bin	267.71433333333	0
bin	267.74766666667	0
bin	267.781	0
bin	267.81433333333	0
bin	267.84766666667	0
bin	267.881	1
bin	267.91433333333	0
bin	267.94766666667	0
bin	267.981	0
bin	268.01433333333	0
bin	268.04766666667	0
bin	268.081	0
bin	268.11433333333	0
bin	268.14766666667	0
bin	268.181	0
bin	268.21433333333	0
bin	268.24766666667	0
bin	268.281	0
bin	268.31433333333	0
bin	268.34766666667	0
bin	268.381	0
statistic RandomGeometricGraph.rgnv[30] 	arrivalPerc:histogram
field count 1
field mean 1
field stddev nan
field sum 1
field sqrsum 1
field min 1
field max 1
attr interpolationmode  none
attr source  count(arrival)
attr title  "arrival perc, histogram"
bin	-INF	0
bin	0	0
bin	1	1
bin	2	0
statistic RandomGeometricGraph.rgnv[31] 	arrivalTime:histogram
field count 1
field mean 419.693
field stddev nan
field sum 419.693
field sqrsum 176142.214249
field min 419.693
field max 419.693
attr interpolationmode  none
attr source  arrivalTime
attr title  "arrival time, histogram"
bin	-INF	0
bin	419.193	0
bin	419.22633333333	0
bin	419.25966666667	0
bin	419.293	0
bin	419.32633333333	0
bin	419.35966666667	0
bin	419.393	0
bin	419.42633333333	0
bin	419.45966666667	0
bin	419.493	0
bin	419.52633333333	0
bin	419.55966666667	0
bin	419.593	0
bin	419.62633333333	0
bin	419.65966666667	0
bin	419.693	1
bin	419.72633333333	0
bin	419.75966666667	0
bin	419.793	0
bin	419.82633333333	0
bin	419.85966666667	0
bin	419.893	0
bin	419.92633333333	0
bin	419.95966666667	0
bin	419.993	0
bin	420.02633333333	0
bin	420.05966666667	0
bin	420.093	0
bin	420.12633333333	0
bin	420.15966666667	0
bin	420.193	0
statistic RandomGeometricGraph.rgnv[31] 	arrivalPerc:histogram
field count 1
field mean 1
field stddev nan
field sum 1
field sqrsum 1
field min 1
field max 1
attr interpolationmode  none
attr source  count(arrival)
attr title  "arrival perc, histogram"
bin	-INF	0
bin	0	0
bin	1	1
bin	2	0
statistic RandomGeometricGraph.rgnv[32] 	arrivalTime:histogram
field count 1
field mean 194.505
field stddev nan
field sum 194.505
field sqrsum 37832.195025
field min 194.505
field max 194.505
attr interpolationmode  none
attr source  arrivalTime
attr title  "arrival time, histogram"
bin	-INF	0
bin	194.005	0
bin	194.03833333333	0
bin	194.07166666667	0
bin	194.105	0
bin	194.13833333333	0
bin	194.17166666667	0
bin	194.205	0
bin	194.23833333333	0
bin	194.27166666667	0
bin	194.305	0
bin	194.33833333333	0
bin	194.37166666667	0
bin	194.405	0
bin	194.43833333333	0
bin	194.47166666667	0
bin	194.505	1
bin	194.53833333333	0
bin	194.57166666667	0
bin	194.605	0
bin	194.63833333333	0
bin	194.67166666667	0
bin	194.705	0
bin	194.73833333333	0
bin	194.77166666667	0
bin	194.805	0
bin	194.83833333333	0
bin	194.87166666667	0
bin	194.905	0
bin	194.93833333333	0
bin	194.97166666667	0
bin	195.005	0
statistic RandomGeometricGraph.rgnv[32] 	arrivalPerc:histogram
field count 1
field mean 1
field stddev nan
field sum 1
field sqrsum 1
field min 1
field max 1
attr interpolationmode  none
attr source  count(arrival)
attr title  "arrival perc, histogram"
bin	-INF	0
bin	0	0
bin	1	1
bin	2	0
statistic RandomGeometricGraph.rgnv[33] 	arrivalTime:histogram
field count 1
field mean 365.729
field stddev nan
field sum 365.729
field sqrsum 133757.701441
field min 365.729
field max 365.729
attr interpolationmode  none
attr source  arrivalTime
attr title  "arrival time, histogram"
bin	-INF	0
bin	365.229	0
bin	365.26233333333	0
bin	365.29566666667	0
bin	365.329	0
bin	365.36233333333	0
bin	365.39566666667	0
bin	365.429	0
bin	365.46233333333	0
bin	365.49566666667	0
bin	365.529	0
bin	365.56233333333	0
bin	365.59566666667	0
bin	365.629	0
bin	365.66233333333	0
bin	365.69566666667	0
bin	365.729	1
bin	365.76233333333	0
bin	365.79566666667	0
bin	365.829	0
bin	365.86233333333	0
bin	365.89566666667	0
bin	365.929	0
bin	365.96233333333	0
bin	365.99566666667	0
bin	366.029	0
bin	366.06233333333	0
bin	366.09566666667	0
bin	366.129	0
bin	366.16233333333	0
bin	366.19566666667	0
bin	366.229	0
statistic RandomGeometricGraph.rgnv[33] 	arrivalPerc:histogram
field count 1
field mean 1
field stddev nan
field sum 1
field sqrsum 1
field min 1
field max 1
attr interpolationmode  none
attr source  count(arrival)
attr title  "arrival perc, histogram"
bin	-INF	0
bin	0	0
bin	1	1
bin	2	0
statistic RandomGeometricGraph.rgnv[34] 	arrivalTime:histogram
field count 0
field mean nan
field stddev nan
field sum 0
field sqrsum 0
field min nan
field max nan
attr interpolationmode  none
attr source  arrivalTime
attr title  "arrival time, histogram"
bin	-INF	0
bin	-0.5	0
bin	-0.46666666666667	0
bin	-0.43333333333333	0
bin	-0.4	0
bin	-0.36666666666667	0
bin	-0.33333333333333	0
bin	-0.3	0
bin	-0.26666666666667	0
bin	-0.23333333333333	0
bin	-0.2	0
bin	-0.16666666666667	0
bin	-0.13333333333333	0
bin	-0.1	0
bin	-0.066666666666667	0
bin	-0.033333333333333	0
bin	0	0
bin	0.033333333333333	0
bin	0.066666666666667	0
bin	0.1	0
bin	0.13333333333333	0
bin	0.16666666666667	0
bin	0.2	0
bin	0.23333333333333	0
bin	0.26666666666667	0
bin	0.3	0
bin	0.33333333333333	0
bin	0.36666666666667	0
bin	0.4	0
bin	0.43333333333333	0
bin	0.46666666666667	0
bin	0.5	0
statistic RandomGeometricGraph.rgnv[34] 	arrivalPerc:histogram
field count 0
field mean nan
field stddev nan
field sum 0
field sqrsum 0
field min nan
field max nan
attr interpolationmode  none
attr source  count(arrival)
attr title  "arrival perc, histogram"
bin	-INF	0
bin	-0.5	0
bin	-0.46666666666667	0
bin	-0.43333333333333	0
bin	-0.4	0
bin	-0.36666666666667	0
bin	-0.33333333333333	0
bin	-0.3	0
bin	-0.26666666666667	0
bin	-0.23333333333333	0
bin	-0.2	0
bin	-0.16666666666667	0
bin	-0.13333333333333	0
bin	-0.1	0
bin	-0.066666666666667	0
bin	-0.033333333333333	0
bin	0	0
bin	0.033333333333333	0
bin	0.066666666666667	0
bin	0.1	0
bin	0.13333333333333	0
bin	0.16666666666667	0
bin	0.2	0
bin	0.23333333333333	0
bin	0.26666666666667	0
bin	0.3	0
bin	0.33333333333333	0
bin	0.36666666666667	0
bin	0.4	0
bin	0.43333333333333	0
bin	0.46666666666667	0
bin	0.5	0
statistic RandomGeometricGraph.rgnv[35] 	arrivalTime:histogram
field count 1
field mean 346.287
field stddev nan
field sum 346.287
field sqrsum 119914.686369
field min 346.287
field max 346.287
attr interpolationmode  none
attr source  arrivalTime
attr title  "arrival time, histogram"
bin	-INF	0
bin	345.787	0
bin	345.82033333333	0
bin	345.85366666667	0
bin	345.887	0
bin	345.92033333333	0
bin	345.95366666667	0
bin	345.987	0
bin	346.02033333333	0
bin	346.05366666667	0
bin	346.087	0
bin	346.12033333333	0
bin	346.15366666667	0
bin	346.187	0
bin	346.22033333333	0
bin	346.25366666667	0
bin	346.287	1
bin	346.32033333333	0
bin	346.35366666667	0
bin	346.387	0
bin	346.42033333333	0
bin	346.45366666667	0
bin	346.487	0
bin	346.52033333333	0
bin	346.55366666667	0
bin	346.587	0
bin	346.62033333333	0
bin	346.65366666667	0
bin	346.687	0
bin	346.72033333333	0
bin	346.75366666667	0
bin	346.787	0
statistic RandomGeometricGraph.rgnv[35] 	arrivalPerc:histogram
field count 1
field mean 1
field stddev nan
field sum 1
field sqrsum 1
field min 1
field max 1
attr interpolationmode  none
attr source  count(arrival)
attr title  "arrival perc, histogram"
bin	-INF	0
bin	0	0
bin	1	1
bin	2	0
statistic RandomGeometricGraph.rgnv[36] 	arrivalTime:histogram
field count 1
field mean 557.013
field stddev nan
field sum 557.013
field sqrsum 310263.482169
field min 557.013
field max 557.013
attr interpolationmode  none
attr source  arrivalTime
attr title  "arrival time, histogram"
bin	-INF	0
bin	556.513	0
bin	556.54633333333	0
bin	556.57966666667	0
bin	556.613	0
bin	556.64633333333	0
bin	556.67966666667	0
bin	556.713	0
bin	556.74633333333	0
bin	556.77966666667	0
bin	556.813	0
bin	556.84633333333	0
bin	556.87966666667	0
bin	556.913	0
bin	556.94633333333	0
bin	556.97966666667	0
bin	557.013	1
bin	557.04633333333	0
bin	557.07966666667	0
bin	557.113	0
bin	557.14633333333	0
bin	557.17966666667	0
bin	557.213	0
bin	557.24633333333	0
bin	557.27966666667	0
bin	557.313	0
bin	557.34633333333	0
bin	557.37966666667	0
bin	557.413	0
bin	557.44633333333	0
bin	557.47966666667	0
bin	557.513	0
statistic RandomGeometricGraph.rgnv[36] 	arrivalPerc:histogram
field count 1
field mean 1
field stddev nan
field sum 1
field sqrsum 1
field min 1
field max 1
attr interpolationmode  none
attr source  count(arrival)
attr title  "arrival perc, histogram"
bin	-INF	0
bin	0	0
bin	1	1
bin	2	0
statistic RandomGeometricGraph.rgnv[37] 	arrivalTime:histogram
field count 0
field mean nan
field stddev nan
field sum 0
field sqrsum 0
field min nan
field max nan
attr interpolationmode  none
attr source  arrivalTime
attr title  "arrival time, histogram"
bin	-INF	0
bin	-0.5	0
bin	-0.46666666666667	0
bin	-0.43333333333333	0
bin	-0.4	0
bin	-0.36666666666667	0
bin	-0.33333333333333	0
bin	-0.3	0
bin	-0.26666666666667	0
bin	-0.23333333333333	0
bin	-0.2	0
bin	-0.16666666666667	0
bin	-0.13333333333333	0
bin	-0.1	0
bin	-0.066666666666667	0
bin	-0.033333333333333	0
bin	0	0
bin	0.033333333333333	0
bin	0.066666666666667	0
bin	0.1	0
bin	0.13333333333333	0
bin	0.16666666666667	0
bin	0.2	0
bin	0.23333333333333	0
bin	0.26666666666667	0
bin	0.3	0
bin	0.33333333333333	0
bin	0.36666666666667	0
bin	0.4	0
bin	0.43333333333333	0
bin	0.46666666666667	0
bin	0.5	0
statistic RandomGeometricGraph.rgnv[37] 	arrivalPerc:histogram
field count 0
field mean nan
field stddev nan
field sum 0
field sqrsum 0
field min nan
field max nan
attr interpolationmode  none
attr source  count(arrival)
attr title  "arrival perc, histogram"
bin	-INF	0
bin	-0.5	0
bin	-0.46666666666667	0
bin	-0.43333333333333	0
bin	-0.4	0
bin	-0.36666666666667	0
bin	-0.33333333333333	0
bin	-0.3	0
bin	-0.26666666666667	0
bin	-0.23333333333333	0
bin	-0.2	0
bin	-0.16666666666667	0
bin	-0.13333333333333	0
bin	-0.1	0
bin	-0.066666666666667	0
bin	-0.033333333333333	0
bin	0	0
bin	0.033333333333333	0
bin	0.066666666666667	0
bin	0.1	0
bin	0.13333333333333	0
bin	0.16666666666667	0
bin	0.2	0
bin	0.23333333333333	0
bin	0.26666666666667	0
bin	0.3	0
bin	0.33333333333333	0
bin	0.36666666666667	0
bin	0.4	0
bin	0.43333333333333	0
bin	0.46666666666667	0
bin	0.5	0
statistic RandomGeometricGraph.rgnv[38] 	arrivalTime:histogram
field count 1
field mean 314.604
field stddev nan
field sum 314.604
field sqrsum 98975.676816
field min 314.604
field max 314.604
attr interpolationmode  none
attr source  arrivalTime
attr title  "arrival time, histogram"
bin	-INF	0
bin	314.104	0
bin	314.13733333333	0
bin	314.17066666667	0
bin	314.204	0
bin	314.23733333333	0
bin	314.27066666667	0
bin	314.304	0
bin	314.33733333333	0
bin	314.37066666667	0
bin	314.404	0
bin	314.43733333333	0
bin	314.47066666667	0
bin	314.504	0
bin	314.53733333333	0
bin	314.57066666667	0
bin	314.604	1
bin	314.63733333333	0
bin	314.67066666667	0
bin	314.704	0
bin	314.73733333333	0
bin	314.77066666667	0
bin	314.804	0
bin	314.83733333333	0
bin	314.87066666667	0
bin	314.904	0
bin	314.93733333333	0
bin	314.97066666667	0
bin	315.004	0
bin	315.03733333333	0
bin	315.07066666667	0
bin	315.104	0
statistic RandomGeometricGraph.rgnv[38] 	arrivalPerc:histogram
field count 1
field mean 1
field stddev nan
field sum 1
field sqrsum 1
field min 1
field max 1
attr interpolationmode  none
attr source  count(arrival)
attr title  "arrival perc, histogram"
bin	-INF	0
bin	0	0
bin	1	1
bin	2	0
statistic RandomGeometricGraph.rgnv[39] 	arrivalTime:histogram
field count 1
field mean 329.046
field stddev nan
field sum 329.046
field sqrsum 108271.270116
field min 329.046
field max 329.046
attr interpolationmode  none
attr source  arrivalTime
attr title  "arrival time, histogram"
bin	-INF	0
bin	328.546	0
bin	328.57933333333	0
bin	328.61266666667	0
bin	328.646	0
bin	328.67933333333	0
bin	328.71266666667	0
bin	328.746	0
bin	328.77933333333	0
bin	328.81266666667	0
bin	328.846	0
bin	328.87933333333	0
bin	328.91266666667	0
bin	328.946	0
bin	328.97933333333	0
bin	329.01266666667	0
bin	329.046	1
bin	329.07933333333	0
bin	329.11266666667	0
bin	329.146	0
bin	329.17933333333	0
bin	329.21266666667	0
bin	329.246	0
bin	329.27933333333	0
bin	329.31266666667	0
bin	329.346	0
bin	329.37933333333	0
bin	329.41266666667	0
bin	329.446	0
bin	329.47933333333	0
bin	329.51266666667	0
bin	329.546	0
statistic RandomGeometricGraph.rgnv[39] 	arrivalPerc:histogram
field count 1
field mean 1
field stddev nan
field sum 1
field sqrsum 1
field min 1
field max 1
attr interpolationmode  none
attr source  count(arrival)
attr title  "arrival perc, histogram"
bin	-INF	0
bin	0	0
bin	1	1
bin	2	0
statistic RandomGeometricGraph.rgnv[40] 	arrivalTime:histogram
field count 1
field mean 226.188
field stddev nan
field sum 226.188
field sqrsum 51161.011344
field min 226.188
field max 226.188
attr interpolationmode  none
attr source  arrivalTime
attr title  "arrival time, histogram"
bin	-INF	0
bin	225.688	0
bin	225.72133333333	0
bin	225.75466666667	0
bin	225.788	0
bin	225.82133333333	0
bin	225.85466666667	0
bin	225.888	0
bin	225.92133333333	0
bin	225.95466666667	0
bin	225.988	0
bin	226.02133333333	0
bin	226.05466666667	0
bin	226.088	0
bin	226.12133333333	0
bin	226.15466666667	0
bin	226.188	1
bin	226.22133333333	0
bin	226.25466666667	0
bin	226.288	0
bin	226.32133333333	0
bin	226.35466666667	0
bin	226.388	0
bin	226.42133333333	0
bin	226.45466666667	0
bin	226.488	0
bin	226.52133333333	0
bin	226.55466666667	0
bin	226.588	0
bin	226.62133333333	0
bin	226.65466666667	0
bin	226.688	0
statistic RandomGeometricGraph.rgnv[40] 	arrivalPerc:histogram
field count 1
field mean 1
field stddev nan
field sum 1
field sqrsum 1
field min 1
field max 1
attr interpolationmode  none
attr source  count(arrival)
attr title  "arrival perc, histogram"
bin	-INF	0
bin	0	0
bin	1	1
bin	2	0
statistic RandomGeometricGraph.rgnv[41] 	arrivalTime:histogram
field count 0
field mean nan
field stddev nan
field sum 0
field sqrsum 0
field min nan
field max nan
attr interpolationmode  none
attr source  arrivalTime
attr title  "arrival time, histogram"
bin	-INF	0
bin	-0.5	0
bin	-0.46666666666667	0
bin	-0.43333333333333	0
bin	-0.4	0
bin	-0.36666666666667	0
bin	-0.33333333333333	0
bin	-0.3	0
bin	-0.26666666666667	0
bin	-0.23333333333333	0
bin	-0.2	0
bin	-0.16666666666667	0
bin	-0.13333333333333	0
bin	-0.1	0
bin	-0.066666666666667	0
bin	-0.033333333333333	0
bin	0	0
bin	0.033333333333333	0
bin	0.066666666666667	0
bin	0.1	0
bin	0.13333333333333	0
bin	0.16666666666667	0
bin	0.2	0
bin	0.23333333333333	0
bin	0.26666666666667	0
bin	0.3	0
bin	0.33333333333333	0
bin	0.36666666666667	0
bin	0.4	0
bin	0.43333333333333	0
bin	0.46666666666667	0
bin	0.5	0
statistic RandomGeometricGraph.rgnv[41] 	arrivalPerc:histogram
field count 0
field mean nan
field stddev nan
field sum 0
field sqrsum 0
field min nan
field max nan
attr interpolationmode  none
attr source  count(arrival)
attr title  "arrival perc, histogram"
bin	-INF	0
bin	-0.5	0
bin	-0.46666666666667	0
bin	-0.43333333333333	0
bin	-0.4	0
bin	-0.36666666666667	0
bin	-0.33333333333333	0
bin	-0.3	0
bin	-0.26666666666667	0
bin	-0.23333333333333	0
bin	-0.2	0
bin	-0.16666666666667	0
bin	-0.13333333333333	0
bin	-0.1	0
bin	-0.066666666666667	0
bin	-0.033333333333333	0
bin	0	0
bin	0.033333333333333	0
bin	0.066666666666667	0
bin	0.1	0
bin	0.13333333333333	0
bin	0.16666666666667	0
bin	0.2	0
bin	0.23333333333333	0
bin	0.26666666666667	0
bin	0.3	0
bin	0.33333333333333	0
bin	0.36666666666667	0
bin	0.4	0
bin	0.43333333333333	0
bin	0.46666666666667	0
bin	0.5	0
statistic RandomGeometricGraph.rgnv[42] 	arrivalTime:histogram
field count 1
field mean 534.782
field stddev nan
field sum 534.782
field sqrsum 285991.787524
field min 534.782
field max 534.782
attr interpolationmode  none
attr source  arrivalTime
attr title  "arrival time, histogram"
bin	-INF	0
bin	534.282	0
bin	534.31533333333	0
bin	534.34866666667	0
bin	534.382	0
bin	534.41533333333	0
bin	534.44866666667	0
bin	534.482	0
bin	534.51533333333	0
bin	534.54866666667	0
bin	534.582	0
bin	534.61533333333	0
bin	534.64866666667	0
bin	534.682	0
bin	534.71533333333	0
bin	534.74866666667	0
bin	534.782	1
bin	534.81533333333	0
bin	534.84866666667	0
bin	534.882	0
bin	534.91533333333	0
bin	534.94866666667	0
bin	534.982	0
bin	535.01533333333	0
bin	535.04866666667	0
bin	535.082	0
bin	535.11533333333	0
bin	535.14866666667	0
bin	535.182	0
bin	535.21533333333	0
bin	535.24866666667	0
bin	535.282	0
statistic RandomGeometricGraph.rgnv[42] 	arrivalPerc:histogram
field count 1
field mean 1
field stddev nan
field sum 1
field sqrsum 1
field min 1
field max 1
attr interpolationmode  none
attr source  count(arrival)
attr title  "arrival perc, histogram"
bin	-INF	0
bin	0	0
bin	1	1
bin	2	0
statistic RandomGeometricGraph.rgnv[43] 	arrivalTime:histogram
field count 1
field mean 150.571
field stddev nan
field sum 150.571
field sqrsum 22671.626041
field min 150.571
field max 150.571
attr interpolationmode  none
attr source  arrivalTime
attr title  "arrival time, histogram"
bin	-INF	0
bin	150.071	0
bin	150.10433333333	0
bin	150.13766666667	0
bin	150.171	0
bin	150.20433333333	0
bin	150.23766666667	0
bin	150.271	0
bin	150.30433333333	0
bin	150.33766666667	0
bin	150.371	0
bin	150.40433333333	0
bin	150.43766666667	0
bin	150.471	0
bin	150.50433333333	0
bin	150.53766666667	0
bin	150.571	1
bin	150.60433333333	0
bin	150.63766666667	0
bin	150.671	0
bin	150.70433333333	0
bin	150.73766666667	0
bin	150.771	0
bin	150.80433333333	0
bin	150.83766666667	0
bin	150.871	0
bin	150.90433333333	0
bin	150.93766666667	0
bin	150.971	0
bin	151.00433333333	0
bin	151.03766666667	0
bin	151.071	0
statistic RandomGeometricGraph.rgnv[43] 	arrivalPerc:histogram
field count 1
field mean 1
field stddev nan
field sum 1
field sqrsum 1
field min 1
field max 1
attr interpolationmode  none
attr source  count(arrival)
attr title  "arrival perc, histogram"
bin	-INF	0
bin	0	0
bin	1	1
bin	2	0
statistic RandomGeometricGraph.rgnv[44] 	arrivalTime:histogram
field count 0
field mean nan
field stddev nan
field sum 0
field sqrsum 0
field min nan
field max nan
attr interpolationmode  none
attr source  arrivalTime
attr title  "arrival time, histogram"
bin	-INF	0
bin	-0.5	0
bin	-0.46666666666667	0
bin	-0.43333333333333	0
bin	-0.4	0
bin	-0.36666666666667	0
bin	-0.33333333333333	0
bin	-0.3	0
bin	-0.26666666666667	0
bin	-0.23333333333333	0
bin	-0.2	0
bin	-0.16666666666667	0
bin	-0.13333333333333	0
bin	-0.1	0
bin	-0.066666666666667	0
bin	-0.033333333333333	0
bin	0	0
bin	0.033333333333333	0
bin	0.066666666666667	0
bin	0.1	0
bin	0.13333333333333	0
bin	0.16666666666667	0
bin	0.2	0
bin	0.23333333333333	0
bin	0.26666666666667	0
bin	0.3	0
bin	0.33333333333333	0
bin	0.36666666666667	0
bin	0.4	0
bin	0.43333333333333	0
bin	0.46666666666667	0
bin	0.5	0
statistic RandomGeometricGraph.rgnv[44] 	arrivalPerc:histogram
field count 0
field mean nan
field stddev nan
field sum 0
field sqrsum 0
field min nan
field max nan
attr interpolationmode  none
attr source  count(arrival)
attr title  "arrival perc, histogram"
bin	-INF	0
bin	-0.5	0
bin	-0.46666666666667	0
bin	-0.43333333333333	0
bin	-0.4	0
bin	-0.36666666666667	0
bin	-0.33333333333333	0
bin	-0.3	0
bin	-0.26666666666667	0
bin	-0.23333333333333	0
bin	-0.2	0
bin	-0.16666666666667	0
bin	-0.13333333333333	0
bin	-0.1	0
bin	-0.066666666666667	0
bin	-0.033333333333333	0
bin	0	0
bin	0.033333333333333	0
bin	0.066666666666667	0
bin	0.1	0
bin	0.13333333333333	0
bin	0.16666666666667	0
bin	0.2	0
bin	0.23333333333333	0
bin	0.26666666666667	0
bin	0.3	0
bin	0.33333333333333	0
bin	0.36666666666667	0
bin	0.4	0
bin	0.43333333333333	0
bin	0.46666666666667	0
bin	0.5	0
statistic RandomGeometricGraph.rgnv[45] 	arrivalTime:histogram
field count 1
field mean 199.495
field stddev nan
field sum 199.495
field sqrsum 39798.255025
field min 199.495
field max 199.495
attr interpolationmode  none
attr source  arrivalTime
attr title  "arrival time, histogram"
bin	-INF	0
bin	198.995	0
bin	199.02833333333	0
bin	199.06166666667	0
bin	199.095	0
bin	199.12833333333	0
bin	199.16166666667	0
bin	199.195	0
bin	199.22833333333	0
bin	199.26166666667	0
bin	199.295	0
bin	199.32833333333	0
bin	199.36166666667	0
bin	199.395	0
bin	199.42833333333	0
bin	199.46166666667	0
bin	199.495	1
bin	199.52833333333	0
bin	199.56166666667	0
bin	199.595	0
bin	199.62833333333	0
bin	199.66166666667	0
bin	199.695	0
bin	199.72833333333	0
bin	199.76166666667	0
bin	199.795	0
bin	199.82833333333	0
bin	199.86166666667	0
bin	199.895	0
bin	199.92833333333	0
bin	199.96166666667	0
bin	199.995	0
statistic RandomGeometricGraph.rgnv[45] 	arrivalPerc:histogram
field count 1
field mean 1
field stddev nan
field sum 1
field sqrsum 1
field min 1
field max 1
attr interpolationmode  none
attr source  count(arrival)
attr title  "arrival perc, histogram"
bin	-INF	0
bin	0	0
bin	1	1
bin	2	0
statistic RandomGeometricGraph.rgnv[46] 	arrivalTime:histogram
field count 1
field mean 213.947
field stddev nan
field sum 213.947
field sqrsum 45773.318809
field min 213.947
field max 213.947
attr interpolationmode  none
attr source  arrivalTime
attr title  "arrival time, histogram"
bin	-INF	0
bin	213.447	0
bin	213.48033333333	0
bin	213.51366666667	0
bin	213.547	0
bin	213.58033333333	0
bin	213.61366666667	0
bin	213.647	0
bin	213.68033333333	0
bin	213.71366666667	0
bin	213.747	0
bin	213.78033333333	0
bin	213.81366666667	0
bin	213.847	0
bin	213.88033333333	0
bin	213.91366666667	0
bin	213.947	1
bin	213.98033333333	0
bin	214.01366666667	0
bin	214.047	0
bin	214.08033333333	0
bin	214.11366666667	0
bin	214.147	0
bin	214.18033333333	0
bin	214.21366666667	0
bin	214.247	0
bin	214.28033333333	0
bin	214.31366666667	0
bin	214.347	0
bin	214.38033333333	0
bin	214.41366666667	0
bin	214.447	0
statistic RandomGeometricGraph.rgnv[46] 	arrivalPerc:histogram
field count 1
field mean 1
field stddev nan
field sum 1
field sqrsum 1
field min 1
field max 1
attr interpolationmode  none
attr source  count(arrival)
attr title  "arrival perc, histogram"
bin	-INF	0
bin	0	0
bin	1	1
bin	2	0
statistic RandomGeometricGraph.rgnv[47] 	arrivalTime:histogram
field count 1
field mean 539.792
field stddev nan
field sum 539.792
field sqrsum 291375.403264
field min 539.792
field max 539.792
attr interpolationmode  none
attr source  arrivalTime
attr title  "arrival time, histogram"
bin	-INF	0
bin	539.292	0
bin	539.32533333333	0
bin	539.35866666667	0
bin	539.392	0
bin	539.42533333333	0
bin	539.45866666667	0
bin	539.492	0
bin	539.52533333333	0
bin	539.55866666667	0
bin	539.592	0
bin	539.62533333333	0
bin	539.65866666667	0
bin	539.692	0
bin	539.72533333333	0
bin	539.75866666667	0
bin	539.792	1
bin	539.82533333333	0
bin	539.85866666667	0
bin	539.892	0
bin	539.92533333333	0
bin	539.95866666667	0
bin	539.992	0
bin	540.02533333333	0
bin	540.05866666667	0
bin	540.092	0
bin	540.12533333333	0
bin	540.15866666667	0
bin	540.192	0
bin	540.22533333333	0
bin	540.25866666667	0
bin	540.292	0
statistic RandomGeometricGraph.rgnv[47] 	arrivalPerc:histogram
field count 1
field mean 1
field stddev nan
field sum 1
field sqrsum 1
field min 1
field max 1
attr interpolationmode  none
attr source  count(arrival)
attr title  "arrival perc, histogram"
bin	-INF	0
bin	0	0
bin	1	1
bin	2	0
statistic RandomGeometricGraph.rgnv[48] 	arrivalTime:histogram
field count 0
field mean nan
field stddev nan
field sum 0
field sqrsum 0
field min nan
field max nan
attr interpolationmode  none
attr source  arrivalTime
attr title  "arrival time, histogram"
bin	-INF	0
bin	-0.5	0
bin	-0.46666666666667	0
bin	-0.43333333333333	0
bin	-0.4	0
bin	-0.36666666666667	0
bin	-0.33333333333333	0
bin	-0.3	0
bin	-0.26666666666667	0
bin	-0.23333333333333	0
bin	-0.2	0
bin	-0.16666666666667	0
bin	-0.13333333333333	0
bin	-0.1	0
bin	-0.066666666666667	0
bin	-0.033333333333333	0
bin	0	0
bin	0.033333333333333	0
bin	0.066666666666667	0
bin	0.1	0
bin	0.13333333333333	0
bin	0.16666666666667	0
bin	0.2	0
bin	0.23333333333333	0
bin	0.26666666666667	0
bin	0.3	0
bin	0.33333333333333	0
bin	0.36666666666667	0
bin	0.4	0
bin	0.43333333333333	0
bin	0.46666666666667	0
bin	0.5	0
statistic RandomGeometricGraph.rgnv[48] 	arrivalPerc:histogram
field count 0
field mean nan
field stddev nan
field sum 0
field sqrsum 0
field min nan
field max nan
attr interpolationmode  none
attr source  count(arrival)
attr title  "arrival perc, histogram"
bin	-INF	0
bin	-0.5	0
bin	-0.46666666666667	0
bin	-0.43333333333333	0
bin	-0.4	0
bin	-0.36666666666667	0
bin	-0.33333333333333	0
bin	-0.3	0
bin	-0.26666666666667	0
bin	-0.23333333333333	0
bin	-0.2	0
bin	-0.16666666666667	0
bin	-0.13333333333333	0
bin	-0.1	0
bin	-0.066666666666667	0
bin	-0.033333333333333	0
bin	0	0
bin	0.033333333333333	0
bin	0.066666666666667	0
bin	0.1	0
bin	0.13333333333333	0
bin	0.16666666666667	0
bin	0.2	0
bin	0.23333333333333	0
bin	0.26666666666667	0
bin	0.3	0
bin	0.33333333333333	0
bin	0.36666666666667	0
bin	0.4	0
bin	0.43333333333333	0
bin	0.46666666666667	0
bin	0.5	0
statistic RandomGeometricGraph.rgnv[49] 	arrivalTime:histogram
field count 1
field mean 116.099
field stddev nan
field sum 116.099
field sqrsum 13478.977801
field min 116.099
field max 116.099
attr interpolationmode  none
attr source  arrivalTime
attr title  "arrival time, histogram"
bin	-INF	0
bin	115.599	0
bin	115.63233333333	0
bin	115.66566666667	0
bin	115.699	0
bin	115.73233333333	0
bin	115.76566666667	0
bin	115.799	0
bin	115.83233333333	0
bin	115.86566666667	0
bin	115.899	0
bin	115.93233333333	0
bin	115.96566666667	0
bin	115.999	0
bin	116.03233333333	0
bin	116.06566666667	0
bin	116.099	1
bin	116.13233333333	0
bin	116.16566666667	0
bin	116.199	0
bin	116.23233333333	0
bin	116.26566666667	0
bin	116.299	0
bin	116.33233333333	0
bin	116.36566666667	0
bin	116.399	0
bin	116.43233333333	0
bin	116.46566666667	0
bin	116.499	0
bin	116.53233333333	0
bin	116.56566666667	0
bin	116.599	0
statistic RandomGeometricGraph.rgnv[49] 	arrivalPerc:histogram
field count 1
field mean 1
field stddev nan
field sum 1
field sqrsum 1
field min 1
field max 1
attr interpolationmode  none
attr source  count(arrival)
attr title  "arrival perc, histogram"
bin	-INF	0
bin	0	0
bin	1	1
bin	2	0
statistic RandomGeometricGraph.rgnv[50] 	arrivalTime:histogram
field count 0
field mean nan
field stddev nan
field sum 0
field sqrsum 0
field min nan
field max nan
attr interpolationmode  none
attr source  arrivalTime
attr title  "arrival time, histogram"
bin	-INF	0
bin	-0.5	0
bin	-0.46666666666667	0
bin	-0.43333333333333	0
bin	-0.4	0
bin	-0.36666666666667	0
bin	-0.33333333333333	0
bin	-0.3	0
bin	-0.26666666666667	0
bin	-0.23333333333333	0
bin	-0.2	0
bin	-0.16666666666667	0
bin	-0.13333333333333	0
bin	-0.1	0
bin	-0.066666666666667	0
bin	-0.033333333333333	0
bin	0	0
bin	0.033333333333333	0
bin	0.066666666666667	0
bin	0.1	0
bin	0.13333333333333	0
bin	0.16666666666667	0
bin	0.2	0
bin	0.23333333333333	0
bin	0.26666666666667	0
bin	0.3	0
bin	0.33333333333333	0
bin	0.36666666666667	0
bin	0.4	0
bin	0.43333333333333	0
bin	0.46666666666667	0
bin	0.5	0
statistic RandomGeometricGraph.rgnv[50] 	arrivalPerc:histogram
field count 0
field mean nan
field stddev nan
field sum 0
field sqrsum 0
field min nan
field max nan
attr interpolationmode  none
attr source  count(arrival)
attr title  "arrival perc, histogram"
bin	-INF	0
bin	-0.5	0
bin	-0.46666666666667	0
bin	-0.43333333333333	0
bin	-0.4	0
bin	-0.36666666666667	0
bin	-0.33333333333333	0
bin	-0.3	0
bin	-0.26666666666667	0
bin	-0.23333333333333	0
bin	-0.2	0
bin	-0.16666666666667	0
bin	-0.13333333333333	0
bin	-0.1	0
bin	-0.066666666666667	0
bin	-0.033333333333333	0
bin	0	0
bin	0.033333333333333	0
bin	0.066666666666667	0
bin	0.1	0
bin	0.13333333333333	0
bin	0.16666666666667	0
bin	0.2	0
bin	0.23333333333333	0
bin	0.26666666666667	0
bin	0.3	0
bin	0.33333333333333	0
bin	0.36666666666667	0
bin	0.4	0
bin	0.43333333333333	0
bin	0.46666666666667	0
bin	0.5	0
statistic RandomGeometricGraph.rgnv[51] 	arrivalTime:histogram
field count 1
field mean 135.561
field stddev nan
field sum 135.561
field sqrsum 18376.784721
field min 135.561
field max 135.561
attr interpolationmode  none
attr source  arrivalTime
attr title  "arrival time, histogram"
bin	-INF	0
bin	135.061	0
bin	135.09433333333	0
bin	135.12766666667	0
bin	135.161	0
bin	135.19433333333	0
bin	135.22766666667	0
bin	135.261	0
bin	135.29433333333	0
bin	135.32766666667	0
bin	135.361	0
bin	135.39433333333	0
bin	135.42766666667	0
bin	135.461	0
bin	135.49433333333	0
bin	135.52766666667	0
bin	135.561	1
bin	135.59433333333	0
bin	135.62766666667	0
bin	135.661	0
bin	135.69433333333	0
bin	135.72766666667	0
bin	135.761	0
bin	135.79433333333	0
bin	135.82766666667	0
bin	135.861	0
bin	135.89433333333	0
bin	135.92766666667	0
bin	135.961	0
bin	135.99433333333	0
bin	136.02766666667	0
bin	136.061	0
statistic RandomGeometricGraph.rgnv[51] 	arrivalPerc:histogram
field count 1
field mean 1
field stddev nan
field sum 1
field sqrsum 1
field min 1
field max 1
attr interpolationmode  none
attr source  count(arrival)
attr title  "arrival perc, histogram"
bin	-INF	0
bin	0	0
bin	1	1
bin	2	0
statistic RandomGeometricGraph.rgnv[52] 	arrivalTime:histogram
field count 0
field mean nan
field stddev nan
field sum 0
field sqrsum 0
field min nan
field max nan
attr interpolationmode  none
attr source  arrivalTime
attr title  "arrival time, histogram"
bin	-INF	0
bin	-0.5	0
bin	-0.46666666666667	0
bin	-0.43333333333333	0
bin	-0.4	0
bin	-0.36666666666667	0
bin	-0.33333333333333	0
bin	-0.3	0
bin	-0.26666666666667	0
bin	-0.23333333333333	0
bin	-0.2	0
bin	-0.16666666666667	0
bin	-0.13333333333333	0
bin	-0.1	0
bin	-0.066666666666667	0
bin	-0.033333333333333	0
bin	0	0
bin	0.033333333333333	0
bin	0.066666666666667	0
bin	0.1	0
bin	0.13333333333333	0
bin	0.16666666666667	0
bin	0.2	0
bin	0.23333333333333	0
bin	0.26666666666667	0
bin	0.3	0
bin	0.33333333333333	0
bin	0.36666666666667	0
bin	0.4	0
bin	0.43333333333333	0
bin	0.46666666666667	0
bin	0.5	0
statistic RandomGeometricGraph.rgnv[52] 	arrivalPerc:histogram
field count 0
field mean nan
field stddev nan
field sum 0
field sqrsum 0
field min nan
field max nan
attr interpolationmode  none
attr source  count(arrival)
attr title  "arrival perc, histogram"
bin	-INF	0
bin	-0.5	0
bin	-0.46666666666667	0
bin	-0.43333333333333	0
bin	-0.4	0
bin	-0.36666666666667	0
bin	-0.33333333333333	0
bin	-0.3	0
bin	-0.26666666666667	0
bin	-0.23333333333333	0
bin	-0.2	0
bin	-0.16666666666667	0
bin	-0.13333333333333	0
bin	-0.1	0
bin	-0.066666666666667	0
bin	-0.033333333333333	0
bin	0	0
bin	0.033333333333333	0
bin	0.066666666666667	0
bin	0.1	0
bin	0.13333333333333	0
bin	0.16666666666667	0
bin	0.2	0
bin	0.23333333333333	0
bin	0.26666666666667	0
bin	0.3	0
bin	0.33333333333333	0
bin	0.36666666666667	0
bin	0.4	0
bin	0.43333333333333	0
bin	0.46666666666667	0
bin	0.5	0
statistic RandomGeometricGraph.rgnv[53] 	arrivalTime:histogram
field count 1
field mean 400.221
field stddev nan
field sum 400.221
field sqrsum 160176.848841
field min 400.221
field max 400.221
attr interpolationmode  none
attr source  arrivalTime
attr title  "arrival time, histogram"
bin	-INF	0
bin	399.721	0
bin	399.75433333333	0
bin	399.78766666667	0
bin	399.821	0
bin	399.85433333333	0
bin	399.88766666667	0
bin	399.921	0
bin	399.95433333333	0
bin	399.98766666667	0
bin	400.021	0
bin	400.05433333333	0
bin	400.08766666667	0
bin	400.121	0
bin	400.15433333333	0
bin	400.18766666667	0
bin	400.221	1
bin	400.25433333333	0
bin	400.28766666667	0
bin	400.321	0
bin	400.35433333333	0
bin	400.38766666667	0
bin	400.421	0
bin	400.45433333333	0
bin	400.48766666667	0
bin	400.521	0
bin	400.55433333333	0
bin	400.58766666667	0
bin	400.621	0
bin	400.65433333333	0
bin	400.68766666667	0
bin	400.721	0
statistic RandomGeometricGraph.rgnv[53] 	arrivalPerc:histogram
field count 1
field mean 1
field stddev nan
field sum 1
field sqrsum 1
field min 1
field max 1
attr interpolationmode  none
attr source  count(arrival)
attr title  "arrival perc, histogram"
bin	-INF	0
bin	0	0
bin	1	1
bin	2	0
statistic RandomGeometricGraph.rgnv[54] 	arrivalTime:histogram
field count 1
field mean 218.957
field stddev nan
field sum 218.957
field sqrsum 47942.167849
field min 218.957
field max 218.957
attr interpolationmode  none
attr source  arrivalTime
attr title  "arrival time, histogram"
bin	-INF	0
bin	218.457	0
bin	218.49033333333	0
bin	218.52366666667	0
bin	218.557	0
bin	218.59033333333	0
bin	218.62366666667	0
bin	218.657	0
bin	218.69033333333	0
bin	218.72366666667	0
bin	218.757	0
bin	218.79033333333	0
bin	218.82366666667	0
bin	218.857	0
bin	218.89033333333	0
bin	218.92366666667	0
bin	218.957	1
bin	218.99033333333	0
bin	219.02366666667	0
bin	219.057	0
bin	219.09033333333	0
bin	219.12366666667	0
bin	219.157	0
bin	219.19033333333	0
bin	219.22366666667	0
bin	219.257	0
bin	219.29033333333	0
bin	219.32366666667	0
bin	219.357	0
bin	219.39033333333	0
bin	219.42366666667	0
bin	219.457	0
statistic RandomGeometricGraph.rgnv[54] 	arrivalPerc:histogram
field count 1
field mean 1
field stddev nan
field sum 1
field sqrsum 1
field min 1
field max 1
attr interpolationmode  none
attr source  count(arrival)
attr title  "arrival perc, histogram"
bin	-INF	0
bin	0	0
bin	1	1
bin	2	0
statistic RandomGeometricGraph.rgnv[55] 	arrivalTime:histogram
field count 1
field mean 287.333
field stddev nan
field sum 287.333
field sqrsum 82560.252889
field min 287.333
field max 287.333
attr interpolationmode  none
attr source  arrivalTime
attr title  "arrival time, histogram"
bin	-INF	0
bin	286.833	0
bin	286.86633333333	0
bin	286.89966666667	0
bin	286.933	0
bin	286.96633333333	0
bin	286.99966666667	0
bin	287.033	0
bin	287.06633333333	0
bin	287.09966666667	0
bin	287.133	0
bin	287.16633333333	0
bin	287.19966666667	0
bin	287.233	0
bin	287.26633333333	0
bin	287.29966666667	0
bin	287.333	1
bin	287.36633333333	0
bin	287.39966666667	0
bin	287.433	0
bin	287.46633333333	0
bin	287.49966666667	0
bin	287.533	0
bin	287.56633333333	0
bin	287.59966666667	0
bin	287.633	0
bin	287.66633333333	0
bin	287.69966666667	0
bin	287.733	0
bin	287.76633333333	0
bin	287.79966666667	0
bin	287.833	0
statistic RandomGeometricGraph.rgnv[55] 	arrivalPerc:histogram
field count 1
field mean 1
field stddev nan
field sum 1
field sqrsum 1
field min 1
field max 1
attr interpolationmode  none
attr source  count(arrival)
attr title  "arrival perc, histogram"
bin	-INF	0
bin	0	0
bin	1	1
bin	2	0
statistic RandomGeometricGraph.rgnv[56] 	arrivalTime:histogram
field count 1
field mean 370.749
field stddev nan
field sum 370.749
field sqrsum 137454.821001
field min 370.749
field max 370.749
attr interpolationmode  none
attr source  arrivalTime
attr title  "arrival time, histogram"
bin	-INF	0
bin	370.249	0
bin	370.28233333333	0
bin	370.31566666667	0
bin	370.349	0
bin	370.38233333333	0
bin	370.41566666667	0
bin	370.449	0
bin	370.48233333333	0
bin	370.51566666667	0
bin	370.549	0
bin	370.58233333333	0
bin	370.61566666667	0
bin	370.649	0
bin	370.68233333333	0
bin	370.71566666667	0
bin	370.749	1
bin	370.78233333333	0
bin	370.81566666667	0
bin	370.849	0
bin	370.88233333333	0
bin	370.91566666667	0
bin	370.949	0
bin	370.98233333333	0
bin	371.01566666667	0
bin	371.049	0
bin	371.08233333333	0
bin	371.11566666667	0
bin	371.149	0
bin	371.18233333333	0
bin	371.21566666667	0
bin	371.249	0
statistic RandomGeometricGraph.rgnv[56] 	arrivalPerc:histogram
field count 1
field mean 1
field stddev nan
field sum 1
field sqrsum 1
field min 1
field max 1
attr interpolationmode  none
attr source  count(arrival)
attr title  "arrival perc, histogram"
bin	-INF	0
bin	0	0
bin	1	1
bin	2	0
statistic RandomGeometricGraph.rgnv[57] 	arrivalTime:histogram
field count 1
field mean 576.485
field stddev nan
field sum 576.485
field sqrsum 332334.955225
field min 576.485
field max 576.485
attr interpolationmode  none
attr source  arrivalTime
attr title  "arrival time, histogram"
bin	-INF	0
bin	575.985	0
bin	576.01833333333	0
bin	576.05166666667	0
bin	576.085	0
bin	576.11833333333	0
bin	576.15166666667	0
bin	576.185	0
bin	576.21833333333	0
bin	576.25166666667	0
bin	576.285	0
bin	576.31833333333	0
bin	576.35166666667	0
bin	576.385	0
bin	576.41833333333	0
bin	576.45166666667	0
bin	576.485	1
bin	576.51833333333	0
bin	576.55166666667	0
bin	576.585	0
bin	576.61833333333	0
bin	576.65166666667	0
bin	576.685	0
bin	576.71833333333	0
bin	576.75166666667	0
bin	576.785	0
bin	576.81833333333	0
bin	576.85166666667	0
bin	576.885	0
bin	576.91833333333	0
bin	576.95166666667	0
bin	576.985	0
statistic RandomGeometricGraph.rgnv[57] 	arrivalPerc:histogram
field count 1
field mean 1
field stddev nan
field sum 1
field sqrsum 1
field min 1
field max 1
attr interpolationmode  none
attr source  count(arrival)
attr title  "arrival perc, histogram"
bin	-INF	0
bin	0	0
bin	1	1
bin	2	0
statistic RandomGeometricGraph.rgnv[58] 	arrivalTime:histogram
field count 0
field mean nan
field stddev nan
field sum 0
field sqrsum 0
field min nan
field max nan
attr interpolationmode  none
attr source  arrivalTime
attr title  "arrival time, histogram"
bin	-INF	0
bin	-0.5	0
bin	-0.46666666666667	0
bin	-0.43333333333333	0
bin	-0.4	0
bin	-0.36666666666667	0
bin	-0.33333333333333	0
bin	-0.3	0
bin	-0.26666666666667	0
bin	-0.23333333333333	0
bin	-0.2	0
bin	-0.16666666666667	0
bin	-0.13333333333333	0
bin	-0.1	0
bin	-0.066666666666667	0
bin	-0.033333333333333	0
bin	0	0
bin	0.033333333333333	0
bin	0.066666666666667	0
bin	0.1	0
bin	0.13333333333333	0
bin	0.16666666666667	0
bin	0.2	0
bin	0.23333333333333	0
bin	0.26666666666667	0
bin	0.3	0
bin	0.33333333333333	0
bin	0.36666666666667	0
bin	0.4	0
bin	0.43333333333333	0
bin	0.46666666666667	0
bin	0.5	0
statistic RandomGeometricGraph.rgnv[58] 	arrivalPerc:histogram
field count 0
field mean nan
field stddev nan
field sum 0
field sqrsum 0
field min nan
field max nan
attr interpolationmode  none
attr source  count(arrival)
attr title  "arrival perc, histogram"
bin	-INF	0
bin	-0.5	0
bin	-0.46666666666667	0
bin	-0.43333333333333	0
bin	-0.4	0
bin	-0.36666666666667	0
bin	-0.33333333333333	0
bin	-0.3	0
bin	-0.26666666666667	0
bin	-0.23333333333333	0
bin	-0.2	0
bin	-0.16666666666667	0
bin	-0.13333333333333	0
bin	-0.1	0
bin	-0.066666666666667	0
bin	-0.033333333333333	0
bin	0	0
bin	0.033333333333333	0
bin	0.066666666666667	0
bin	0.1	0
bin	0.13333333333333	0
bin	0.16666666666667	0
bin	0.2	0
bin	0.23333333333333	0
bin	0.26666666666667	0
bin	0.3	0
bin	0.33333333333333	0
bin	0.36666666666667	0
bin	0.4	0
bin	0.43333333333333	0
bin	0.46666666666667	0
bin	0.5	0
statistic RandomGeometricGraph.rgnv[59] 	arrivalTime:histogram
field count 1
field mean 627.62
field stddev nan
field sum 627.62
field sqrsum 393906.8644
field min 627.62
field max 627.62
attr interpolationmode  none
attr source  arrivalTime
attr title  "arrival time, histogram"
bin	-INF	0
bin	627.12	0
bin	627.15333333333	0
bin	627.18666666667	0
bin	627.22	0
bin	627.25333333333	0
bin	627.28666666667	0
bin	627.32	0
bin	627.35333333333	0
bin	627.38666666667	0
bin	627.42	0
bin	627.45333333333	0
bin	627.48666666667	0
bin	627.52	0
bin	627.55333333333	0
bin	627.58666666667	0
bin	627.62	1
bin	627.65333333333	0
bin	627.68666666667	0
bin	627.72	0
bin	627.75333333333	0
bin	627.78666666667	0
bin	627.82	0
bin	627.85333333333	0
bin	627.88666666667	0
bin	627.92	0
bin	627.95333333333	0
bin	627.98666666667	0
bin	628.02	0
bin	628.05333333333	0
bin	628.08666666667	0
bin	628.12	0
statistic RandomGeometricGraph.rgnv[59] 	arrivalPerc:histogram
field count 1
field mean 1
field stddev nan
field sum 1
field sqrsum 1
field min 1
field max 1
attr interpolationmode  none
attr source  count(arrival)
attr title  "arrival perc, histogram"
bin	-INF	0
bin	0	0
bin	1	1
bin	2	0
statistic RandomGeometricGraph.rgnv[60] 	arrivalTime:histogram
field count 1
field mean 557.033
field stddev nan
field sum 557.033
field sqrsum 310285.763089
field min 557.033
field max 557.033
attr interpolationmode  none
attr source  arrivalTime
attr title  "arrival time, histogram"
bin	-INF	0
bin	556.533	0
bin	556.56633333333	0
bin	556.59966666667	0
bin	556.633	0
bin	556.66633333333	0
bin	556.69966666667	0
bin	556.733	0
bin	556.76633333333	0
bin	556.79966666667	0
bin	556.833	0
bin	556.86633333333	0
bin	556.89966666667	0
bin	556.933	0
bin	556.96633333333	0
bin	556.99966666667	0
bin	557.033	1
bin	557.06633333333	0
bin	557.09966666667	0
bin	557.133	0
bin	557.16633333333	0
bin	557.19966666667	0
bin	557.233	0
bin	557.26633333333	0
bin	557.29966666667	0
bin	557.333	0
bin	557.36633333333	0
bin	557.39966666667	0
bin	557.433	0
bin	557.46633333333	0
bin	557.49966666667	0
bin	557.533	0
statistic RandomGeometricGraph.rgnv[60] 	arrivalPerc:histogram
field count 1
field mean 1
field stddev nan
field sum 1
field sqrsum 1
field min 1
field max 1
attr interpolationmode  none
attr source  count(arrival)
attr title  "arrival perc, histogram"
bin	-INF	0
bin	0	0
bin	1	1
bin	2	0
statistic RandomGeometricGraph.rgnv[61] 	arrivalTime:histogram
field count 1
field mean 529.752
field stddev nan
field sum 529.752
field sqrsum 280637.181504
field min 529.752
field max 529.752
attr interpolationmode  none
attr source  arrivalTime
attr title  "arrival time, histogram"
bin	-INF	0
bin	529.252	0
bin	529.28533333333	0
bin	529.31866666667	0
bin	529.352	0
bin	529.38533333333	0
bin	529.41866666667	0
bin	529.452	0
bin	529.48533333333	0
bin	529.51866666667	0
bin	529.552	0
bin	529.58533333333	0
bin	529.61866666667	0
bin	529.652	0
bin	529.68533333333	0
bin	529.71866666667	0
bin	529.752	1
bin	529.78533333333	0
bin	529.81866666667	0
bin	529.852	0
bin	529.88533333333	0
bin	529.91866666667	0
bin	529.952	0
bin	529.98533333333	0
bin	530.01866666667	0
bin	530.052	0
bin	530.08533333333	0
bin	530.11866666667	0
bin	530.152	0
bin	530.18533333333	0
bin	530.21866666667	0
bin	530.252	0
statistic RandomGeometricGraph.rgnv[61] 	arrivalPerc:histogram
field count 1
field mean 1
field stddev nan
field sum 1
field sqrsum 1
field min 1
field max 1
attr interpolationmode  none
attr source  count(arrival)
attr title  "arrival perc, histogram"
bin	-INF	0
bin	0	0
bin	1	1
bin	2	0
statistic RandomGeometricGraph.rgnv[62] 	arrivalTime:histogram
field count 1
field mean 483.627
field stddev nan
field sum 483.627
field sqrsum 233895.075129
field min 483.627
field max 483.627
attr interpolationmode  none
attr source  arrivalTime
attr title  "arrival time, histogram"
bin	-INF	0
bin	483.127	0
bin	483.16033333333	0
bin	483.19366666667	0
bin	483.227	0
bin	483.26033333333	0
bin	483.29366666667	0
bin	483.327	0
bin	483.36033333333	0
bin	483.39366666667	0
bin	483.427	0
bin	483.46033333333	0
bin	483.49366666667	0
bin	483.527	0
bin	483.56033333333	0
bin	483.59366666667	0
bin	483.627	1
bin	483.66033333333	0
bin	483.69366666667	0
bin	483.727	0
bin	483.76033333333	0
bin	483.79366666667	0
bin	483.827	0
bin	483.86033333333	0
[...]
bin	605.77033333333	0
bin	605.80366666667	0
bin	605.837	0
bin	605.87033333333	0
bin	605.90366666667	0
bin	605.937	1
bin	605.97033333333	0
bin	606.00366666667	0
bin	606.037	0
bin	606.07033333333	0
bin	606.10366666667	0
bin	606.137	0
bin	606.17033333333	0
bin	606.20366666667	0
bin	606.237	0
bin	606.27033333333	0
bin	606.30366666667	0
bin	606.337	0
bin	606.37033333333	0
bin	606.40366666667	0
bin	606.437	0
statistic RandomGeometricGraph.rgnv[984] 	arrivalPerc:histogram
field count 1
field mean 1
field stddev nan
field sum 1
field sqrsum 1
field min 1
field max 1
attr interpolationmode  none
attr source  count(arrival)
attr title  "arrival perc, histogram"
bin	-INF	0
bin	0	0
bin	1	1
bin	2	0
statistic RandomGeometricGraph.rgnv[985] 	arrivalTime:histogram
field count 1
field mean 189.495
field stddev nan
field sum 189.495
field sqrsum 35908.355025
field min 189.495
field max 189.495
attr interpolationmode  none
attr source  arrivalTime
attr title  "arrival time, histogram"
bin	-INF	0
bin	188.995	0
bin	189.02833333333	0
bin	189.06166666667	0
bin	189.095	0
bin	189.12833333333	0
bin	189.16166666667	0
bin	189.195	0
bin	189.22833333333	0
bin	189.26166666667	0
bin	189.295	0
bin	189.32833333333	0
bin	189.36166666667	0
bin	189.395	0
bin	189.42833333333	0
bin	189.46166666667	0
bin	189.495	1
bin	189.52833333333	0
bin	189.56166666667	0
bin	189.595	0
bin	189.62833333333	0
bin	189.66166666667	0
bin	189.695	0
bin	189.72833333333	0
bin	189.76166666667	0
bin	189.795	0
bin	189.82833333333	0
bin	189.86166666667	0
bin	189.895	0
bin	189.92833333333	0
bin	189.96166666667	0
bin	189.995	0
statistic RandomGeometricGraph.rgnv[985] 	arrivalPerc:histogram
field count 1
field mean 1
field stddev nan
field sum 1
field sqrsum 1
field min 1
field max 1
attr interpolationmode  none
attr source  count(arrival)
attr title  "arrival perc, histogram"
bin	-INF	0
bin	0	0
bin	1	1
bin	2	0
statistic RandomGeometricGraph.rgnv[986] 	arrivalTime:histogram
field count 1
field mean 243.429
field stddev nan
field sum 243.429
field sqrsum 59257.678041
field min 243.429
field max 243.429
attr interpolationmode  none
attr source  arrivalTime
attr title  "arrival time, histogram"
bin	-INF	0
bin	242.929	0
bin	242.96233333333	0
bin	242.99566666667	0
bin	243.029	0
bin	243.06233333333	0
bin	243.09566666667	0
bin	243.129	0
bin	243.16233333333	0
bin	243.19566666667	0
bin	243.229	0
bin	243.26233333333	0
bin	243.29566666667	0
bin	243.329	0
bin	243.36233333333	0
bin	243.39566666667	0
bin	243.429	1
bin	243.46233333333	0
bin	243.49566666667	0
bin	243.529	0
bin	243.56233333333	0
bin	243.59566666667	0
bin	243.629	0
bin	243.66233333333	0
bin	243.69566666667	0
bin	243.729	0
bin	243.76233333333	0
bin	243.79566666667	0
bin	243.829	0
bin	243.86233333333	0
bin	243.89566666667	0
bin	243.929	0
statistic RandomGeometricGraph.rgnv[986] 	arrivalPerc:histogram
field count 1
field mean 1
field stddev nan
field sum 1
field sqrsum 1
field min 1
field max 1
attr interpolationmode  none
attr source  count(arrival)
attr title  "arrival perc, histogram"
bin	-INF	0
bin	0	0
bin	1	1
bin	2	0
statistic RandomGeometricGraph.rgnv[987] 	arrivalTime:histogram
field count 1
field mean 380.181
field stddev nan
field sum 380.181
field sqrsum 144537.592761
field min 380.181
field max 380.181
attr interpolationmode  none
attr source  arrivalTime
attr title  "arrival time, histogram"
bin	-INF	0
bin	379.681	0
bin	379.71433333333	0
bin	379.74766666667	0
bin	379.781	0
bin	379.81433333333	0
bin	379.84766666667	0
bin	379.881	0
bin	379.91433333333	0
bin	379.94766666667	0
bin	379.981	0
bin	380.01433333333	0
bin	380.04766666667	0
bin	380.081	0
bin	380.11433333333	0
bin	380.14766666667	0
bin	380.181	1
bin	380.21433333333	0
bin	380.24766666667	0
bin	380.281	0
bin	380.31433333333	0
bin	380.34766666667	0
bin	380.381	0
bin	380.41433333333	0
bin	380.44766666667	0
bin	380.481	0
bin	380.51433333333	0
bin	380.54766666667	0
bin	380.581	0
bin	380.61433333333	0
bin	380.64766666667	0
bin	380.681	0
statistic RandomGeometricGraph.rgnv[987] 	arrivalPerc:histogram
field count 1
field mean 1
field stddev nan
field sum 1
field sqrsum 1
field min 1
field max 1
attr interpolationmode  none
attr source  count(arrival)
attr title  "arrival perc, histogram"
bin	-INF	0
bin	0	0
bin	1	1
bin	2	0
statistic RandomGeometricGraph.rgnv[988] 	arrivalTime:histogram
field count 0
field mean nan
field stddev nan
field sum 0
field sqrsum 0
field min nan
field max nan
attr interpolationmode  none
attr source  arrivalTime
attr title  "arrival time, histogram"
bin	-INF	0
bin	-0.5	0
bin	-0.46666666666667	0
bin	-0.43333333333333	0
bin	-0.4	0
bin	-0.36666666666667	0
bin	-0.33333333333333	0
bin	-0.3	0
bin	-0.26666666666667	0
bin	-0.23333333333333	0
bin	-0.2	0
bin	-0.16666666666667	0
bin	-0.13333333333333	0
bin	-0.1	0
bin	-0.066666666666667	0
bin	-0.033333333333333	0
bin	0	0
bin	0.033333333333333	0
bin	0.066666666666667	0
bin	0.1	0
bin	0.13333333333333	0
bin	0.16666666666667	0
bin	0.2	0
bin	0.23333333333333	0
bin	0.26666666666667	0
bin	0.3	0
bin	0.33333333333333	0
bin	0.36666666666667	0
bin	0.4	0
bin	0.43333333333333	0
bin	0.46666666666667	0
bin	0.5	0
statistic RandomGeometricGraph.rgnv[988] 	arrivalPerc:histogram
field count 0
field mean nan
field stddev nan
field sum 0
field sqrsum 0
field min nan
field max nan
attr interpolationmode  none
attr source  count(arrival)
attr title  "arrival perc, histogram"
bin	-INF	0
bin	-0.5	0
bin	-0.46666666666667	0
bin	-0.43333333333333	0
bin	-0.4	0
bin	-0.36666666666667	0
bin	-0.33333333333333	0
bin	-0.3	0
bin	-0.26666666666667	0
bin	-0.23333333333333	0
bin	-0.2	0
bin	-0.16666666666667	0
bin	-0.13333333333333	0
bin	-0.1	0
bin	-0.066666666666667	0
bin	-0.033333333333333	0
bin	0	0
bin	0.033333333333333	0
bin	0.066666666666667	0
bin	0.1	0
bin	0.13333333333333	0
bin	0.16666666666667	0
bin	0.2	0
bin	0.23333333333333	0
bin	0.26666666666667	0
bin	0.3	0
bin	0.33333333333333	0
bin	0.36666666666667	0
bin	0.4	0
bin	0.43333333333333	0
bin	0.46666666666667	0
bin	0.5	0
statistic RandomGeometricGraph.rgnv[989] 	arrivalTime:histogram
field count 0
field mean nan
field stddev nan
field sum 0
field sqrsum 0
field min nan
field max nan
attr interpolationmode  none
attr source  arrivalTime
attr title  "arrival time, histogram"
bin	-INF	0
bin	-0.5	0
bin	-0.46666666666667	0
bin	-0.43333333333333	0
bin	-0.4	0
bin	-0.36666666666667	0
bin	-0.33333333333333	0
bin	-0.3	0
bin	-0.26666666666667	0
bin	-0.23333333333333	0
bin	-0.2	0
bin	-0.16666666666667	0
bin	-0.13333333333333	0
bin	-0.1	0
bin	-0.066666666666667	0
bin	-0.033333333333333	0
bin	0	0
bin	0.033333333333333	0
bin	0.066666666666667	0
bin	0.1	0
bin	0.13333333333333	0
bin	0.16666666666667	0
bin	0.2	0
bin	0.23333333333333	0
bin	0.26666666666667	0
bin	0.3	0
bin	0.33333333333333	0
bin	0.36666666666667	0
bin	0.4	0
bin	0.43333333333333	0
bin	0.46666666666667	0
bin	0.5	0
statistic RandomGeometricGraph.rgnv[989] 	arrivalPerc:histogram
field count 0
field mean nan
field stddev nan
field sum 0
field sqrsum 0
field min nan
field max nan
attr interpolationmode  none
attr source  count(arrival)
attr title  "arrival perc, histogram"
bin	-INF	0
bin	-0.5	0
bin	-0.46666666666667	0
bin	-0.43333333333333	0
bin	-0.4	0
bin	-0.36666666666667	0
bin	-0.33333333333333	0
bin	-0.3	0
bin	-0.26666666666667	0
bin	-0.23333333333333	0
bin	-0.2	0
bin	-0.16666666666667	0
bin	-0.13333333333333	0
bin	-0.1	0
bin	-0.066666666666667	0
bin	-0.033333333333333	0
bin	0	0
bin	0.033333333333333	0
bin	0.066666666666667	0
bin	0.1	0
bin	0.13333333333333	0
bin	0.16666666666667	0
bin	0.2	0
bin	0.23333333333333	0
bin	0.26666666666667	0
bin	0.3	0
bin	0.33333333333333	0
bin	0.36666666666667	0
bin	0.4	0
bin	0.43333333333333	0
bin	0.46666666666667	0
bin	0.5	0
statistic RandomGeometricGraph.rgnv[990] 	arrivalTime:histogram
field count 1
field mean 194.485
field stddev nan
field sum 194.485
field sqrsum 37824.415225
field min 194.485
field max 194.485
attr interpolationmode  none
attr source  arrivalTime
attr title  "arrival time, histogram"
bin	-INF	0
bin	193.985	0
bin	194.01833333333	0
bin	194.05166666667	0
bin	194.085	0
bin	194.11833333333	0
bin	194.15166666667	0
bin	194.185	0
bin	194.21833333333	0
bin	194.25166666667	0
bin	194.285	0
bin	194.31833333333	0
bin	194.35166666667	0
bin	194.385	0
bin	194.41833333333	0
bin	194.45166666667	0
bin	194.485	1
bin	194.51833333333	0
bin	194.55166666667	0
bin	194.585	0
bin	194.61833333333	0
bin	194.65166666667	0
bin	194.685	0
bin	194.71833333333	0
bin	194.75166666667	0
bin	194.785	0
bin	194.81833333333	0
bin	194.85166666667	0
bin	194.885	0
bin	194.91833333333	0
bin	194.95166666667	0
bin	194.985	0
statistic RandomGeometricGraph.rgnv[990] 	arrivalPerc:histogram
field count 1
field mean 1
field stddev nan
field sum 1
field sqrsum 1
field min 1
field max 1
attr interpolationmode  none
attr source  count(arrival)
attr title  "arrival perc, histogram"
bin	-INF	0
bin	0	0
bin	1	1
bin	2	0
statistic RandomGeometricGraph.rgnv[991] 	arrivalTime:histogram
field count 1
field mean 206.736
field stddev nan
field sum 206.736
field sqrsum 42739.773696
field min 206.736
field max 206.736
attr interpolationmode  none
attr source  arrivalTime
attr title  "arrival time, histogram"
bin	-INF	0
bin	206.236	0
bin	206.26933333333	0
bin	206.30266666667	0
bin	206.336	0
bin	206.36933333333	0
bin	206.40266666667	0
bin	206.436	0
bin	206.46933333333	0
bin	206.50266666667	0
bin	206.536	0
bin	206.56933333333	0
bin	206.60266666667	0
bin	206.636	0
bin	206.66933333333	0
bin	206.70266666667	0
bin	206.736	1
bin	206.76933333333	0
bin	206.80266666667	0
bin	206.836	0
bin	206.86933333333	0
bin	206.90266666667	0
bin	206.936	0
bin	206.96933333333	0
bin	207.00266666667	0
bin	207.036	0
bin	207.06933333333	0
bin	207.10266666667	0
bin	207.136	0
bin	207.16933333333	0
bin	207.20266666667	0
bin	207.236	0
statistic RandomGeometricGraph.rgnv[991] 	arrivalPerc:histogram
field count 1
field mean 1
field stddev nan
field sum 1
field sqrsum 1
field min 1
field max 1
attr interpolationmode  none
attr source  count(arrival)
attr title  "arrival perc, histogram"
bin	-INF	0
bin	0	0
bin	1	1
bin	2	0
statistic RandomGeometricGraph.rgnv[992] 	arrivalTime:histogram
field count 1
field mean 615.379
field stddev nan
field sum 615.379
field sqrsum 378691.313641
field min 615.379
field max 615.379
attr interpolationmode  none
attr source  arrivalTime
attr title  "arrival time, histogram"
bin	-INF	0
bin	614.879	0
bin	614.91233333333	0
bin	614.94566666667	0
bin	614.979	0
bin	615.01233333333	0
bin	615.04566666667	0
bin	615.079	0
bin	615.11233333333	0
bin	615.14566666667	0
bin	615.179	0
bin	615.21233333333	0
bin	615.24566666667	0
bin	615.279	0
bin	615.31233333333	0
bin	615.34566666667	0
bin	615.379	1
bin	615.41233333333	0
bin	615.44566666667	0
bin	615.479	0
bin	615.51233333333	0
bin	615.54566666667	0
bin	615.579	0
bin	615.61233333333	0
bin	615.64566666667	0
bin	615.679	0
bin	615.71233333333	0
bin	615.74566666667	0
bin	615.779	0
bin	615.81233333333	0
bin	615.84566666667	0
bin	615.879	0
statistic RandomGeometricGraph.rgnv[992] 	arrivalPerc:histogram
field count 1
field mean 1
field stddev nan
field sum 1
field sqrsum 1
field min 1
field max 1
attr interpolationmode  none
attr source  count(arrival)
attr title  "arrival perc, histogram"
bin	-INF	0
bin	0	0
bin	1	1
bin	2	0
statistic RandomGeometricGraph.rgnv[993] 	arrivalTime:histogram
field count 1
field mean 634.841
field stddev nan
field sum 634.841
field sqrsum 403023.095281
field min 634.841
field max 634.841
attr interpolationmode  none
attr source  arrivalTime
attr title  "arrival time, histogram"
bin	-INF	0
bin	634.341	0
bin	634.37433333333	0
bin	634.40766666667	0
bin	634.441	0
bin	634.47433333333	0
bin	634.50766666667	0
bin	634.541	0
bin	634.57433333333	0
bin	634.60766666667	0
bin	634.641	0
bin	634.67433333333	0
bin	634.70766666667	0
bin	634.741	0
bin	634.77433333333	0
bin	634.80766666667	0
bin	634.841	1
bin	634.87433333333	0
bin	634.90766666667	0
bin	634.941	0
bin	634.97433333333	0
bin	635.00766666667	0
bin	635.041	0
bin	635.07433333333	0
bin	635.10766666667	0
bin	635.141	0
bin	635.17433333333	0
bin	635.20766666667	0
bin	635.241	0
bin	635.27433333333	0
bin	635.30766666667	0
bin	635.341	0
statistic RandomGeometricGraph.rgnv[993] 	arrivalPerc:histogram
field count 1
field mean 1
field stddev nan
field sum 1
field sqrsum 1
field min 1
field max 1
attr interpolationmode  none
attr source  count(arrival)
attr title  "arrival perc, histogram"
bin	-INF	0
bin	0	0
bin	1	1
bin	2	0
statistic RandomGeometricGraph.rgnv[994] 	arrivalTime:histogram
field count 1
field mean 385.191
field stddev nan
field sum 385.191
field sqrsum 148372.106481
field min 385.191
field max 385.191
attr interpolationmode  none
attr source  arrivalTime
attr title  "arrival time, histogram"
bin	-INF	0
bin	384.691	0
bin	384.72433333333	0
bin	384.75766666667	0
bin	384.791	0
bin	384.82433333333	0
bin	384.85766666667	0
bin	384.891	0
bin	384.92433333333	0
bin	384.95766666667	0
bin	384.991	0
bin	385.02433333333	0
bin	385.05766666667	0
bin	385.091	0
bin	385.12433333333	0
bin	385.15766666667	0
bin	385.191	1
bin	385.22433333333	0
bin	385.25766666667	0
bin	385.291	0
bin	385.32433333333	0
bin	385.35766666667	0
bin	385.391	0
bin	385.42433333333	0
bin	385.45766666667	0
bin	385.491	0
bin	385.52433333333	0
bin	385.55766666667	0
bin	385.591	0
bin	385.62433333333	0
bin	385.65766666667	0
bin	385.691	0
statistic RandomGeometricGraph.rgnv[994] 	arrivalPerc:histogram
field count 1
field mean 1
field stddev nan
field sum 1
field sqrsum 1
field min 1
field max 1
attr interpolationmode  none
attr source  count(arrival)
attr title  "arrival perc, histogram"
bin	-INF	0
bin	0	0
bin	1	1
bin	2	0
statistic RandomGeometricGraph.rgnv[995] 	arrivalTime:histogram
field count 1
field mean 304.574
field stddev nan
field sum 304.574
field sqrsum 92765.321476
field min 304.574
field max 304.574
attr interpolationmode  none
attr source  arrivalTime
attr title  "arrival time, histogram"
bin	-INF	0
bin	304.074	0
bin	304.10733333333	0
bin	304.14066666667	0
bin	304.174	0
bin	304.20733333333	0
bin	304.24066666667	0
bin	304.274	0
bin	304.30733333333	0
bin	304.34066666667	0
bin	304.374	0
bin	304.40733333333	0
bin	304.44066666667	0
bin	304.474	0
bin	304.50733333333	0
bin	304.54066666667	0
bin	304.574	1
bin	304.60733333333	0
bin	304.64066666667	0
bin	304.674	0
bin	304.70733333333	0
bin	304.74066666667	0
bin	304.774	0
bin	304.80733333333	0
bin	304.84066666667	0
bin	304.874	0
bin	304.90733333333	0
bin	304.94066666667	0
bin	304.974	0
bin	305.00733333333	0
bin	305.04066666667	0
bin	305.074	0
statistic RandomGeometricGraph.rgnv[995] 	arrivalPerc:histogram
field count 1
field mean 1
field stddev nan
field sum 1
field sqrsum 1
field min 1
field max 1
attr interpolationmode  none
attr source  count(arrival)
attr title  "arrival perc, histogram"
bin	-INF	0
bin	0	0
bin	1	1
bin	2	0
statistic RandomGeometricGraph.rgnv[996] 	arrivalTime:histogram
field count 0
field mean nan
field stddev nan
field sum 0
field sqrsum 0
field min nan
field max nan
attr interpolationmode  none
attr source  arrivalTime
attr title  "arrival time, histogram"
bin	-INF	0
bin	-0.5	0
bin	-0.46666666666667	0
bin	-0.43333333333333	0
bin	-0.4	0
bin	-0.36666666666667	0
bin	-0.33333333333333	0
bin	-0.3	0
bin	-0.26666666666667	0
bin	-0.23333333333333	0
bin	-0.2	0
bin	-0.16666666666667	0
bin	-0.13333333333333	0
bin	-0.1	0
bin	-0.066666666666667	0
bin	-0.033333333333333	0
bin	0	0
bin	0.033333333333333	0
bin	0.066666666666667	0
bin	0.1	0
bin	0.13333333333333	0
bin	0.16666666666667	0
bin	0.2	0
bin	0.23333333333333	0
bin	0.26666666666667	0
bin	0.3	0
bin	0.33333333333333	0
bin	0.36666666666667	0
bin	0.4	0
bin	0.43333333333333	0
bin	0.46666666666667	0
bin	0.5	0
statistic RandomGeometricGraph.rgnv[996] 	arrivalPerc:histogram
field count 0
field mean nan
field stddev nan
field sum 0
field sqrsum 0
field min nan
field max nan
attr interpolationmode  none
attr source  count(arrival)
attr title  "arrival perc, histogram"
bin	-INF	0
bin	-0.5	0
bin	-0.46666666666667	0
bin	-0.43333333333333	0
bin	-0.4	0
bin	-0.36666666666667	0
bin	-0.33333333333333	0
bin	-0.3	0
bin	-0.26666666666667	0
bin	-0.23333333333333	0
bin	-0.2	0
bin	-0.16666666666667	0
bin	-0.13333333333333	0
bin	-0.1	0
bin	-0.066666666666667	0
bin	-0.033333333333333	0
bin	0	0
bin	0.033333333333333	0
bin	0.066666666666667	0
bin	0.1	0
bin	0.13333333333333	0
bin	0.16666666666667	0
bin	0.2	0
bin	0.23333333333333	0
bin	0.26666666666667	0
bin	0.3	0
bin	0.33333333333333	0
bin	0.36666666666667	0
bin	0.4	0
bin	0.43333333333333	0
bin	0.46666666666667	0
bin	0.5	0
statistic RandomGeometricGraph.rgnv[997] 	arrivalTime:histogram
field count 1
field mean 111.099
field stddev nan
field sum 111.099
field sqrsum 12342.987801
field min 111.099
field max 111.099
attr interpolationmode  none
attr source  arrivalTime
attr title  "arrival time, histogram"
bin	-INF	0
bin	110.599	0
bin	110.63233333333	0
bin	110.66566666667	0
bin	110.699	0
bin	110.73233333333	0
bin	110.76566666667	0
bin	110.799	0
bin	110.83233333333	0
bin	110.86566666667	0
bin	110.899	0
bin	110.93233333333	0
bin	110.96566666667	0
bin	110.999	0
bin	111.03233333333	0
bin	111.06566666667	0
bin	111.099	1
bin	111.13233333333	0
bin	111.16566666667	0
bin	111.199	0
bin	111.23233333333	0
bin	111.26566666667	0
bin	111.299	0
bin	111.33233333333	0
bin	111.36566666667	0
bin	111.399	0
bin	111.43233333333	0
bin	111.46566666667	0
bin	111.499	0
bin	111.53233333333	0
bin	111.56566666667	0
bin	111.599	0
statistic RandomGeometricGraph.rgnv[997] 	arrivalPerc:histogram
field count 1
field mean 1
field stddev nan
field sum 1
field sqrsum 1
field min 1
field max 1
attr interpolationmode  none
attr source  count(arrival)
attr title  "arrival perc, histogram"
bin	-INF	0
bin	0	0
bin	1	1
bin	2	0
statistic RandomGeometricGraph.rgnv[998] 	arrivalTime:histogram
field count 1
field mean 218.967
field stddev nan
field sum 218.967
field sqrsum 47946.547089
field min 218.967
field max 218.967
attr interpolationmode  none
attr source  arrivalTime
attr title  "arrival time, histogram"
bin	-INF	0
bin	218.467	0
bin	218.50033333333	0
bin	218.53366666667	0
bin	218.567	0
bin	218.60033333333	0
bin	218.63366666667	0
bin	218.667	0
bin	218.70033333333	0
bin	218.73366666667	0
bin	218.767	0
bin	218.80033333333	0
bin	218.83366666667	0
bin	218.867	0
bin	218.90033333333	0
bin	218.93366666667	0
bin	218.967	1
bin	219.00033333333	0
bin	219.03366666667	0
bin	219.067	0
bin	219.10033333333	0
bin	219.13366666667	0
bin	219.167	0
bin	219.20033333333	0
bin	219.23366666667	0
bin	219.267	0
bin	219.30033333333	0
bin	219.33366666667	0
bin	219.367	0
bin	219.40033333333	0
bin	219.43366666667	0
bin	219.467	0
statistic RandomGeometricGraph.rgnv[998] 	arrivalPerc:histogram
field count 1
field mean 1
field stddev nan
field sum 1
field sqrsum 1
field min 1
field max 1
attr interpolationmode  none
attr source  count(arrival)
attr title  "arrival perc, histogram"
bin	-INF	0
bin	0	0
bin	1	1
bin	2	0
statistic RandomGeometricGraph.rgnv[999] 	arrivalTime:histogram
field count 1
field mean 618.168
field stddev nan
field sum 618.168
field sqrsum 382131.676224
field min 618.168
field max 618.168
attr interpolationmode  none
attr source  arrivalTime
attr title  "arrival time, histogram"
bin	-INF	0
bin	617.668	0
bin	617.70133333333	0
bin	617.73466666667	0
bin	617.768	0
bin	617.80133333333	0
bin	617.83466666667	0
bin	617.868	0
bin	617.90133333333	0
bin	617.93466666667	0
bin	617.968	0
bin	618.00133333333	0
bin	618.03466666667	0
bin	618.068	0
bin	618.10133333333	0
bin	618.13466666667	0
bin	618.168	1
bin	618.20133333333	0
bin	618.23466666667	0
bin	618.268	0
bin	618.30133333333	0
bin	618.33466666667	0
bin	618.368	0
bin	618.40133333333	0
bin	618.43466666667	0
bin	618.468	0
bin	618.50133333333	0
bin	618.53466666667	0
bin	618.568	0
bin	618.60133333333	0
bin	618.63466666667	0
bin	618.668	0
statistic RandomGeometricGraph.rgnv[999] 	arrivalPerc:histogram
field count 1
field mean 1
field stddev nan
field sum 1
field sqrsum 1
field min 1
field max 1
attr interpolationmode  none
attr source  count(arrival)
attr title  "arrival perc, histogram"
bin	-INF	0
bin	0	0
bin	1	1
bin	2	0
