version 2
run rgg200-16-20170110-15:47:53-10168
attr configname rgg200
attr datetime 20170110-15:47:53
attr experiment rgg200
attr inifile iniFile/D002/omnetpp_50D002.ini
attr iterationvars ""
attr iterationvars2 $repetition=16
attr measurement ""
attr network blegossipprj.net.randomgeometricgraph.RandomGeometricGraph
attr processid 10168
attr repetition 16
attr replication #16
attr resultdir ../../results/D002/r50D002
attr runnumber 16
attr seedset 16
param RandomGeometricGraph.netSize 200
param RandomGeometricGraph.radius 50
param RandomGeometricGraph.rgnv[*].areaLength 100
param RandomGeometricGraph.rgnv[*].areaWidth 100

statistic RandomGeometricGraph.sc 	arrivalPercentage
field count 198
field mean 1
field stddev 0
field sum 198
field sqrsum 198
field min 1
field max 1
attr type  int
bin	-INF	0
bin	0	0
bin	1	198
bin	2	0
statistic RandomGeometricGraph.sc 	arrivalTime
field count 198
field mean 148.37003030303
field stddev 71.080556313714
field sum 29377.266
field sqrsum 5354037.607356
field min 0
field max 305.591
bin	-INF	0
bin	-69.429	0
bin	-60.1718	0
bin	-50.9146	0
bin	-41.6574	0
bin	-32.4002	0
bin	-23.143	0
bin	-13.8858	0
bin	-4.6286	1
bin	4.6286	1
bin	13.8858	0
bin	23.143	2
bin	32.4002	4
bin	41.6574	5
bin	50.9146	2
bin	60.1718	11
bin	69.429	7
bin	78.6862	12
bin	87.9434	13
bin	97.2006	7
bin	106.4578	10
bin	115.715	11
bin	124.9722	11
bin	134.2294	4
bin	143.4866	8
bin	152.7438	8
bin	162.001	11
bin	171.2582	5
bin	180.5154	6
bin	189.7726	7
bin	199.0298	7
bin	208.287	45
statistic RandomGeometricGraph.rgnv[0] 	arrivalTime:histogram
field count 1
field mean 89.416
field stddev nan
field sum 89.416
field sqrsum 7995.221056
field min 89.416
field max 89.416
attr interpolationmode  none
attr source  arrivalTime
attr title  "arrival time, histogram"
bin	-INF	0
bin	88.916	0
bin	88.949333333333	0
bin	88.982666666667	0
bin	89.016	0
bin	89.049333333333	0
bin	89.082666666667	0
bin	89.116	0
bin	89.149333333333	0
bin	89.182666666667	0
bin	89.216	0
bin	89.249333333333	0
bin	89.282666666667	0
bin	89.316	0
bin	89.349333333333	0
bin	89.382666666667	0
bin	89.416	1
bin	89.449333333333	0
bin	89.482666666667	0
bin	89.516	0
bin	89.549333333333	0
bin	89.582666666667	0
bin	89.616	0
bin	89.649333333333	0
bin	89.682666666667	0
bin	89.716	0
bin	89.749333333333	0
bin	89.782666666667	0
bin	89.816	0
bin	89.849333333333	0
bin	89.882666666667	0
bin	89.916	0
statistic RandomGeometricGraph.rgnv[0] 	arrivalPerc:histogram
field count 1
field mean 1
field stddev nan
field sum 1
field sqrsum 1
field min 1
field max 1
attr interpolationmode  none
attr source  count(arrival)
attr title  "arrival perc, histogram"
bin	-INF	0
bin	0	0
bin	1	1
bin	2	0
statistic RandomGeometricGraph.rgnv[1] 	arrivalTime:histogram
field count 1
field mean 49.934
field stddev nan
field sum 49.934
field sqrsum 2493.404356
field min 49.934
field max 49.934
attr interpolationmode  none
attr source  arrivalTime
attr title  "arrival time, histogram"
bin	-INF	0
bin	49.434	0
bin	49.467333333333	0
bin	49.500666666667	0
bin	49.534	0
bin	49.567333333333	0
bin	49.600666666667	0
bin	49.634	0
bin	49.667333333333	0
bin	49.700666666667	0
bin	49.734	0
bin	49.767333333333	0
bin	49.800666666667	0
bin	49.834	0
bin	49.867333333333	0
bin	49.900666666667	0
bin	49.934	1
bin	49.967333333333	0
bin	50.000666666667	0
bin	50.034	0
bin	50.067333333333	0
bin	50.100666666667	0
bin	50.134	0
bin	50.167333333333	0
bin	50.200666666667	0
bin	50.234	0
bin	50.267333333333	0
bin	50.300666666667	0
bin	50.334	0
bin	50.367333333333	0
bin	50.400666666667	0
bin	50.434	0
statistic RandomGeometricGraph.rgnv[1] 	arrivalPerc:histogram
field count 1
field mean 1
field stddev nan
field sum 1
field sqrsum 1
field min 1
field max 1
attr interpolationmode  none
attr source  count(arrival)
attr title  "arrival perc, histogram"
bin	-INF	0
bin	0	0
bin	1	1
bin	2	0
statistic RandomGeometricGraph.rgnv[2] 	arrivalTime:histogram
field count 1
field mean 84.416
field stddev nan
field sum 84.416
field sqrsum 7126.061056
field min 84.416
field max 84.416
attr interpolationmode  none
attr source  arrivalTime
attr title  "arrival time, histogram"
bin	-INF	0
bin	83.916	0
bin	83.949333333333	0
bin	83.982666666667	0
bin	84.016	0
bin	84.049333333333	0
bin	84.082666666667	0
bin	84.116	0
bin	84.149333333333	0
bin	84.182666666667	0
bin	84.216	0
bin	84.249333333333	0
bin	84.282666666667	0
bin	84.316	0
bin	84.349333333333	0
bin	84.382666666667	0
bin	84.416	1
bin	84.449333333333	0
bin	84.482666666667	0
bin	84.516	0
bin	84.549333333333	0
bin	84.582666666667	0
bin	84.616	0
bin	84.649333333333	0
bin	84.682666666667	0
bin	84.716	0
bin	84.749333333333	0
bin	84.782666666667	0
bin	84.816	0
bin	84.849333333333	0
bin	84.882666666667	0
bin	84.916	0
statistic RandomGeometricGraph.rgnv[2] 	arrivalPerc:histogram
field count 1
field mean 1
field stddev nan
field sum 1
field sqrsum 1
field min 1
field max 1
attr interpolationmode  none
attr source  count(arrival)
attr title  "arrival perc, histogram"
bin	-INF	0
bin	0	0
bin	1	1
bin	2	0
statistic RandomGeometricGraph.rgnv[3] 	arrivalTime:histogram
field count 1
field mean 168.878
field stddev nan
field sum 168.878
field sqrsum 28519.778884
field min 168.878
field max 168.878
attr interpolationmode  none
attr source  arrivalTime
attr title  "arrival time, histogram"
bin	-INF	0
bin	168.378	0
bin	168.41133333333	0
bin	168.44466666667	0
bin	168.478	0
bin	168.51133333333	0
bin	168.54466666667	0
bin	168.578	0
bin	168.61133333333	0
bin	168.64466666667	0
bin	168.678	0
bin	168.71133333333	0
bin	168.74466666667	0
bin	168.778	0
bin	168.81133333333	0
bin	168.84466666667	0
bin	168.878	1
bin	168.91133333333	0
bin	168.94466666667	0
bin	168.978	0
bin	169.01133333333	0
bin	169.04466666667	0
bin	169.078	0
bin	169.11133333333	0
bin	169.14466666667	0
bin	169.178	0
bin	169.21133333333	0
bin	169.24466666667	0
bin	169.278	0
bin	169.31133333333	0
bin	169.34466666667	0
bin	169.378	0
statistic RandomGeometricGraph.rgnv[3] 	arrivalPerc:histogram
field count 1
field mean 1
field stddev nan
field sum 1
field sqrsum 1
field min 1
field max 1
attr interpolationmode  none
attr source  count(arrival)
attr title  "arrival perc, histogram"
bin	-INF	0
bin	0	0
bin	1	1
bin	2	0
statistic RandomGeometricGraph.rgnv[4] 	arrivalTime:histogram
field count 1
field mean 79.396
field stddev nan
field sum 79.396
field sqrsum 6303.724816
field min 79.396
field max 79.396
attr interpolationmode  none
attr source  arrivalTime
attr title  "arrival time, histogram"
bin	-INF	0
bin	78.896	0
bin	78.929333333333	0
bin	78.962666666667	0
bin	78.996	0
bin	79.029333333333	0
bin	79.062666666667	0
bin	79.096	0
bin	79.129333333333	0
bin	79.162666666667	0
bin	79.196	0
bin	79.229333333333	0
bin	79.262666666667	0
bin	79.296	0
bin	79.329333333333	0
bin	79.362666666667	0
bin	79.396	1
bin	79.429333333333	0
bin	79.462666666667	0
bin	79.496	0
bin	79.529333333333	0
bin	79.562666666667	0
bin	79.596	0
bin	79.629333333333	0
bin	79.662666666667	0
bin	79.696	0
bin	79.729333333333	0
bin	79.762666666667	0
bin	79.796	0
bin	79.829333333333	0
bin	79.862666666667	0
bin	79.896	0
statistic RandomGeometricGraph.rgnv[4] 	arrivalPerc:histogram
field count 1
field mean 1
field stddev nan
field sum 1
field sqrsum 1
field min 1
field max 1
attr interpolationmode  none
attr source  count(arrival)
attr title  "arrival perc, histogram"
bin	-INF	0
bin	0	0
bin	1	1
bin	2	0
statistic RandomGeometricGraph.rgnv[5] 	arrivalTime:histogram
field count 1
field mean 191.099
field stddev nan
field sum 191.099
field sqrsum 36518.827801
field min 191.099
field max 191.099
attr interpolationmode  none
attr source  arrivalTime
attr title  "arrival time, histogram"
bin	-INF	0
bin	190.599	0
bin	190.63233333333	0
bin	190.66566666667	0
bin	190.699	0
bin	190.73233333333	0
bin	190.76566666667	0
bin	190.799	0
bin	190.83233333333	0
bin	190.86566666667	0
bin	190.899	0
bin	190.93233333333	0
bin	190.96566666667	0
bin	190.999	0
bin	191.03233333333	0
bin	191.06566666667	0
bin	191.099	1
bin	191.13233333333	0
bin	191.16566666667	0
bin	191.199	0
bin	191.23233333333	0
bin	191.26566666667	0
bin	191.299	0
bin	191.33233333333	0
bin	191.36566666667	0
bin	191.399	0
bin	191.43233333333	0
bin	191.46566666667	0
bin	191.499	0
bin	191.53233333333	0
bin	191.56566666667	0
bin	191.599	0
statistic RandomGeometricGraph.rgnv[5] 	arrivalPerc:histogram
field count 1
field mean 1
field stddev nan
field sum 1
field sqrsum 1
field min 1
field max 1
attr interpolationmode  none
attr source  count(arrival)
attr title  "arrival perc, histogram"
bin	-INF	0
bin	0	0
bin	1	1
bin	2	0
statistic RandomGeometricGraph.rgnv[6] 	arrivalTime:histogram
field count 1
field mean 253.35
field stddev nan
field sum 253.35
field sqrsum 64186.2225
field min 253.35
field max 253.35
attr interpolationmode  none
attr source  arrivalTime
attr title  "arrival time, histogram"
bin	-INF	0
bin	252.85	0
bin	252.88333333333	0
bin	252.91666666667	0
bin	252.95	0
bin	252.98333333333	0
bin	253.01666666667	0
bin	253.05	0
bin	253.08333333333	0
bin	253.11666666667	0
bin	253.15	0
bin	253.18333333333	0
bin	253.21666666667	0
bin	253.25	0
bin	253.28333333333	0
bin	253.31666666667	0
bin	253.35	1
bin	253.38333333333	0
bin	253.41666666667	0
bin	253.45	0
bin	253.48333333333	0
bin	253.51666666667	0
bin	253.55	0
bin	253.58333333333	0
bin	253.61666666667	0
bin	253.65	0
bin	253.68333333333	0
bin	253.71666666667	0
bin	253.75	0
bin	253.78333333333	0
bin	253.81666666667	0
bin	253.85	0
statistic RandomGeometricGraph.rgnv[6] 	arrivalPerc:histogram
field count 1
field mean 1
field stddev nan
field sum 1
field sqrsum 1
field min 1
field max 1
attr interpolationmode  none
attr source  count(arrival)
attr title  "arrival perc, histogram"
bin	-INF	0
bin	0	0
bin	1	1
bin	2	0
statistic RandomGeometricGraph.rgnv[7] 	arrivalTime:histogram
field count 1
field mean 153.868
field stddev nan
field sum 153.868
field sqrsum 23675.361424
field min 153.868
field max 153.868
attr interpolationmode  none
attr source  arrivalTime
attr title  "arrival time, histogram"
bin	-INF	0
bin	153.368	0
bin	153.40133333333	0
bin	153.43466666667	0
bin	153.468	0
bin	153.50133333333	0
bin	153.53466666667	0
bin	153.568	0
bin	153.60133333333	0
bin	153.63466666667	0
bin	153.668	0
bin	153.70133333333	0
bin	153.73466666667	0
bin	153.768	0
bin	153.80133333333	0
bin	153.83466666667	0
bin	153.868	1
bin	153.90133333333	0
bin	153.93466666667	0
bin	153.968	0
bin	154.00133333333	0
bin	154.03466666667	0
bin	154.068	0
bin	154.10133333333	0
bin	154.13466666667	0
bin	154.168	0
bin	154.20133333333	0
bin	154.23466666667	0
bin	154.268	0
bin	154.30133333333	0
bin	154.33466666667	0
bin	154.368	0
statistic RandomGeometricGraph.rgnv[7] 	arrivalPerc:histogram
field count 1
field mean 1
field stddev nan
field sum 1
field sqrsum 1
field min 1
field max 1
attr interpolationmode  none
attr source  count(arrival)
attr title  "arrival perc, histogram"
bin	-INF	0
bin	0	0
bin	1	1
bin	2	0
statistic RandomGeometricGraph.rgnv[8] 	arrivalTime:histogram
field count 1
field mean 186.099
field stddev nan
field sum 186.099
field sqrsum 34632.837801
field min 186.099
field max 186.099
attr interpolationmode  none
attr source  arrivalTime
attr title  "arrival time, histogram"
bin	-INF	0
bin	185.599	0
bin	185.63233333333	0
bin	185.66566666667	0
bin	185.699	0
bin	185.73233333333	0
bin	185.76566666667	0
bin	185.799	0
bin	185.83233333333	0
bin	185.86566666667	0
bin	185.899	0
bin	185.93233333333	0
bin	185.96566666667	0
bin	185.999	0
bin	186.03233333333	0
bin	186.06566666667	0
bin	186.099	1
bin	186.13233333333	0
bin	186.16566666667	0
bin	186.199	0
bin	186.23233333333	0
bin	186.26566666667	0
bin	186.299	0
bin	186.33233333333	0
bin	186.36566666667	0
bin	186.399	0
bin	186.43233333333	0
bin	186.46566666667	0
bin	186.499	0
bin	186.53233333333	0
bin	186.56566666667	0
bin	186.599	0
statistic RandomGeometricGraph.rgnv[8] 	arrivalPerc:histogram
field count 1
field mean 1
field stddev nan
field sum 1
field sqrsum 1
field min 1
field max 1
attr interpolationmode  none
attr source  count(arrival)
attr title  "arrival perc, histogram"
bin	-INF	0
bin	0	0
bin	1	1
bin	2	0
statistic RandomGeometricGraph.rgnv[9] 	arrivalTime:histogram
field count 1
field mean 168.878
field stddev nan
field sum 168.878
field sqrsum 28519.778884
field min 168.878
field max 168.878
attr interpolationmode  none
attr source  arrivalTime
attr title  "arrival time, histogram"
bin	-INF	0
bin	168.378	0
bin	168.41133333333	0
bin	168.44466666667	0
bin	168.478	0
bin	168.51133333333	0
bin	168.54466666667	0
bin	168.578	0
bin	168.61133333333	0
bin	168.64466666667	0
bin	168.678	0
bin	168.71133333333	0
bin	168.74466666667	0
bin	168.778	0
bin	168.81133333333	0
bin	168.84466666667	0
bin	168.878	1
bin	168.91133333333	0
bin	168.94466666667	0
bin	168.978	0
bin	169.01133333333	0
bin	169.04466666667	0
bin	169.078	0
bin	169.11133333333	0
bin	169.14466666667	0
bin	169.178	0
bin	169.21133333333	0
bin	169.24466666667	0
bin	169.278	0
bin	169.31133333333	0
bin	169.34466666667	0
bin	169.378	0
statistic RandomGeometricGraph.rgnv[9] 	arrivalPerc:histogram
field count 1
field mean 1
field stddev nan
field sum 1
field sqrsum 1
field min 1
field max 1
attr interpolationmode  none
attr source  count(arrival)
attr title  "arrival perc, histogram"
bin	-INF	0
bin	0	0
bin	1	1
bin	2	0
statistic RandomGeometricGraph.rgnv[10] 	arrivalTime:histogram
field count 1
field mean 181.089
field stddev nan
field sum 181.089
field sqrsum 32793.225921
field min 181.089
field max 181.089
attr interpolationmode  none
attr source  arrivalTime
attr title  "arrival time, histogram"
bin	-INF	0
bin	180.589	0
bin	180.62233333333	0
bin	180.65566666667	0
bin	180.689	0
bin	180.72233333333	0
bin	180.75566666667	0
bin	180.789	0
bin	180.82233333333	0
bin	180.85566666667	0
bin	180.889	0
bin	180.92233333333	0
bin	180.95566666667	0
bin	180.989	0
bin	181.02233333333	0
bin	181.05566666667	0
bin	181.089	1
bin	181.12233333333	0
bin	181.15566666667	0
bin	181.189	0
bin	181.22233333333	0
bin	181.25566666667	0
bin	181.289	0
bin	181.32233333333	0
bin	181.35566666667	0
bin	181.389	0
bin	181.42233333333	0
bin	181.45566666667	0
bin	181.489	0
bin	181.52233333333	0
bin	181.55566666667	0
bin	181.589	0
statistic RandomGeometricGraph.rgnv[10] 	arrivalPerc:histogram
field count 1
field mean 1
field stddev nan
field sum 1
field sqrsum 1
field min 1
field max 1
attr interpolationmode  none
attr source  count(arrival)
attr title  "arrival perc, histogram"
bin	-INF	0
bin	0	0
bin	1	1
bin	2	0
statistic RandomGeometricGraph.rgnv[11] 	arrivalTime:histogram
field count 1
field mean 79.396
field stddev nan
field sum 79.396
field sqrsum 6303.724816
field min 79.396
field max 79.396
attr interpolationmode  none
attr source  arrivalTime
attr title  "arrival time, histogram"
bin	-INF	0
bin	78.896	0
bin	78.929333333333	0
bin	78.962666666667	0
bin	78.996	0
bin	79.029333333333	0
bin	79.062666666667	0
bin	79.096	0
bin	79.129333333333	0
bin	79.162666666667	0
bin	79.196	0
bin	79.229333333333	0
bin	79.262666666667	0
bin	79.296	0
bin	79.329333333333	0
bin	79.362666666667	0
bin	79.396	1
bin	79.429333333333	0
bin	79.462666666667	0
bin	79.496	0
bin	79.529333333333	0
bin	79.562666666667	0
bin	79.596	0
bin	79.629333333333	0
bin	79.662666666667	0
bin	79.696	0
bin	79.729333333333	0
bin	79.762666666667	0
bin	79.796	0
bin	79.829333333333	0
bin	79.862666666667	0
bin	79.896	0
statistic RandomGeometricGraph.rgnv[11] 	arrivalPerc:histogram
field count 1
field mean 1
field stddev nan
field sum 1
field sqrsum 1
field min 1
field max 1
attr interpolationmode  none
attr source  count(arrival)
attr title  "arrival perc, histogram"
bin	-INF	0
bin	0	0
bin	1	1
bin	2	0
statistic RandomGeometricGraph.rgnv[12] 	arrivalTime:histogram
field count 1
field mean 106.637
field stddev nan
field sum 106.637
field sqrsum 11371.449769
field min 106.637
field max 106.637
attr interpolationmode  none
attr source  arrivalTime
attr title  "arrival time, histogram"
bin	-INF	0
bin	106.137	0
bin	106.17033333333	0
bin	106.20366666667	0
bin	106.237	0
bin	106.27033333333	0
bin	106.30366666667	0
bin	106.337	0
bin	106.37033333333	0
bin	106.40366666667	0
bin	106.437	0
bin	106.47033333333	0
bin	106.50366666667	0
bin	106.537	0
bin	106.57033333333	0
bin	106.60366666667	0
bin	106.637	1
bin	106.67033333333	0
bin	106.70366666667	0
bin	106.737	0
bin	106.77033333333	0
bin	106.80366666667	0
bin	106.837	0
bin	106.87033333333	0
bin	106.90366666667	0
bin	106.937	0
bin	106.97033333333	0
bin	107.00366666667	0
bin	107.037	0
bin	107.07033333333	0
bin	107.10366666667	0
bin	107.137	0
statistic RandomGeometricGraph.rgnv[12] 	arrivalPerc:histogram
field count 1
field mean 1
field stddev nan
field sum 1
field sqrsum 1
field min 1
field max 1
attr interpolationmode  none
attr source  count(arrival)
attr title  "arrival perc, histogram"
bin	-INF	0
bin	0	0
bin	1	1
bin	2	0
statistic RandomGeometricGraph.rgnv[13] 	arrivalTime:histogram
field count 1
field mean 74.396
field stddev nan
field sum 74.396
field sqrsum 5534.764816
field min 74.396
field max 74.396
attr interpolationmode  none
attr source  arrivalTime
attr title  "arrival time, histogram"
bin	-INF	0
bin	73.896	0
bin	73.929333333333	0
bin	73.962666666667	0
bin	73.996	0
bin	74.029333333333	0
bin	74.062666666667	0
bin	74.096	0
bin	74.129333333333	0
bin	74.162666666667	0
bin	74.196	0
bin	74.229333333333	0
bin	74.262666666667	0
bin	74.296	0
bin	74.329333333333	0
bin	74.362666666667	0
bin	74.396	1
bin	74.429333333333	0
bin	74.462666666667	0
bin	74.496	0
bin	74.529333333333	0
bin	74.562666666667	0
bin	74.596	0
bin	74.629333333333	0
bin	74.662666666667	0
bin	74.696	0
bin	74.729333333333	0
bin	74.762666666667	0
bin	74.796	0
bin	74.829333333333	0
bin	74.862666666667	0
bin	74.896	0
statistic RandomGeometricGraph.rgnv[13] 	arrivalPerc:histogram
field count 1
field mean 1
field stddev nan
field sum 1
field sqrsum 1
field min 1
field max 1
attr interpolationmode  none
attr source  count(arrival)
attr title  "arrival perc, histogram"
bin	-INF	0
bin	0	0
bin	1	1
bin	2	0
statistic RandomGeometricGraph.rgnv[14] 	arrivalTime:histogram
field count 1
field mean 248.34
field stddev nan
field sum 248.34
field sqrsum 61672.7556
field min 248.34
field max 248.34
attr interpolationmode  none
attr source  arrivalTime
attr title  "arrival time, histogram"
bin	-INF	0
bin	247.84	0
bin	247.87333333333	0
bin	247.90666666667	0
bin	247.94	0
bin	247.97333333333	0
bin	248.00666666667	0
bin	248.04	0
bin	248.07333333333	0
bin	248.10666666667	0
bin	248.14	0
bin	248.17333333333	0
bin	248.20666666667	0
bin	248.24	0
bin	248.27333333333	0
bin	248.30666666667	0
bin	248.34	1
bin	248.37333333333	0
bin	248.40666666667	0
bin	248.44	0
bin	248.47333333333	0
bin	248.50666666667	0
bin	248.54	0
bin	248.57333333333	0
bin	248.60666666667	0
bin	248.64	0
bin	248.67333333333	0
bin	248.70666666667	0
bin	248.74	0
bin	248.77333333333	0
bin	248.80666666667	0
bin	248.84	0
statistic RandomGeometricGraph.rgnv[14] 	arrivalPerc:histogram
field count 1
field mean 1
field stddev nan
field sum 1
field sqrsum 1
field min 1
field max 1
attr interpolationmode  none
attr source  count(arrival)
attr title  "arrival perc, histogram"
bin	-INF	0
bin	0	0
bin	1	1
bin	2	0
statistic RandomGeometricGraph.rgnv[15] 	arrivalTime:histogram
field count 1
field mean 99.416
field stddev nan
field sum 99.416
field sqrsum 9883.541056
field min 99.416
field max 99.416
attr interpolationmode  none
attr source  arrivalTime
attr title  "arrival time, histogram"
bin	-INF	0
bin	98.916	0
bin	98.949333333333	0
bin	98.982666666667	0
bin	99.016	0
bin	99.049333333333	0
bin	99.082666666667	0
bin	99.116	0
bin	99.149333333333	0
bin	99.182666666667	0
bin	99.216	0
bin	99.249333333333	0
bin	99.282666666667	0
bin	99.316	0
bin	99.349333333333	0
bin	99.382666666667	0
bin	99.416	1
bin	99.449333333333	0
bin	99.482666666667	0
bin	99.516	0
bin	99.549333333333	0
bin	99.582666666667	0
bin	99.616	0
bin	99.649333333333	0
bin	99.682666666667	0
bin	99.716	0
bin	99.749333333333	0
bin	99.782666666667	0
bin	99.816	0
bin	99.849333333333	0
bin	99.882666666667	0
bin	99.916	0
statistic RandomGeometricGraph.rgnv[15] 	arrivalPerc:histogram
field count 1
field mean 1
field stddev nan
field sum 1
field sqrsum 1
field min 1
field max 1
attr interpolationmode  none
attr source  count(arrival)
attr title  "arrival perc, histogram"
bin	-INF	0
bin	0	0
bin	1	1
bin	2	0
statistic RandomGeometricGraph.rgnv[16] 	arrivalTime:histogram
field count 1
field mean 111.637
field stddev nan
field sum 111.637
field sqrsum 12462.819769
field min 111.637
field max 111.637
attr interpolationmode  none
attr source  arrivalTime
attr title  "arrival time, histogram"
bin	-INF	0
bin	111.137	0
bin	111.17033333333	0
bin	111.20366666667	0
bin	111.237	0
bin	111.27033333333	0
bin	111.30366666667	0
bin	111.337	0
bin	111.37033333333	0
bin	111.40366666667	0
bin	111.437	0
bin	111.47033333333	0
bin	111.50366666667	0
bin	111.537	0
bin	111.57033333333	0
bin	111.60366666667	0
bin	111.637	1
bin	111.67033333333	0
bin	111.70366666667	0
bin	111.737	0
bin	111.77033333333	0
bin	111.80366666667	0
bin	111.837	0
bin	111.87033333333	0
bin	111.90366666667	0
bin	111.937	0
bin	111.97033333333	0
bin	112.00366666667	0
bin	112.037	0
bin	112.07033333333	0
bin	112.10366666667	0
bin	112.137	0
statistic RandomGeometricGraph.rgnv[16] 	arrivalPerc:histogram
field count 1
field mean 1
field stddev nan
field sum 1
field sqrsum 1
field min 1
field max 1
attr interpolationmode  none
attr source  count(arrival)
attr title  "arrival perc, histogram"
bin	-INF	0
bin	0	0
bin	1	1
bin	2	0
statistic RandomGeometricGraph.rgnv[17] 	arrivalTime:histogram
field count 1
field mean 143.858
field stddev nan
field sum 143.858
field sqrsum 20695.124164
field min 143.858
field max 143.858
attr interpolationmode  none
attr source  arrivalTime
attr title  "arrival time, histogram"
bin	-INF	0
bin	143.358	0
bin	143.39133333333	0
bin	143.42466666667	0
bin	143.458	0
bin	143.49133333333	0
bin	143.52466666667	0
bin	143.558	0
bin	143.59133333333	0
bin	143.62466666667	0
bin	143.658	0
bin	143.69133333333	0
bin	143.72466666667	0
bin	143.758	0
bin	143.79133333333	0
bin	143.82466666667	0
bin	143.858	1
bin	143.89133333333	0
bin	143.92466666667	0
bin	143.958	0
bin	143.99133333333	0
bin	144.02466666667	0
bin	144.058	0
bin	144.09133333333	0
bin	144.12466666667	0
bin	144.158	0
bin	144.19133333333	0
bin	144.22466666667	0
bin	144.258	0
bin	144.29133333333	0
bin	144.32466666667	0
bin	144.358	0
statistic RandomGeometricGraph.rgnv[17] 	arrivalPerc:histogram
field count 1
field mean 1
field stddev nan
field sum 1
field sqrsum 1
field min 1
field max 1
attr interpolationmode  none
attr source  count(arrival)
attr title  "arrival perc, histogram"
bin	-INF	0
bin	0	0
bin	1	1
bin	2	0
statistic RandomGeometricGraph.rgnv[18] 	arrivalTime:histogram
field count 1
field mean 263.36
field stddev nan
field sum 263.36
field sqrsum 69358.4896
field min 263.36
field max 263.36
attr interpolationmode  none
attr source  arrivalTime
attr title  "arrival time, histogram"
bin	-INF	0
bin	262.86	0
bin	262.89333333333	0
bin	262.92666666667	0
bin	262.96	0
bin	262.99333333333	0
bin	263.02666666667	0
bin	263.06	0
bin	263.09333333333	0
bin	263.12666666667	0
bin	263.16	0
bin	263.19333333333	0
bin	263.22666666667	0
bin	263.26	0
bin	263.29333333333	0
bin	263.32666666667	0
bin	263.36	1
bin	263.39333333333	0
bin	263.42666666667	0
bin	263.46	0
bin	263.49333333333	0
bin	263.52666666667	0
bin	263.56	0
bin	263.59333333333	0
bin	263.62666666667	0
bin	263.66	0
bin	263.69333333333	0
bin	263.72666666667	0
bin	263.76	0
bin	263.79333333333	0
bin	263.82666666667	0
bin	263.86	0
statistic RandomGeometricGraph.rgnv[18] 	arrivalPerc:histogram
field count 1
field mean 1
field stddev nan
field sum 1
field sqrsum 1
field min 1
field max 1
attr interpolationmode  none
attr source  count(arrival)
attr title  "arrival perc, histogram"
bin	-INF	0
bin	0	0
bin	1	1
bin	2	0
statistic RandomGeometricGraph.rgnv[19] 	arrivalTime:histogram
field count 1
field mean 84.406
field stddev nan
field sum 84.406
field sqrsum 7124.372836
field min 84.406
field max 84.406
attr interpolationmode  none
attr source  arrivalTime
attr title  "arrival time, histogram"
bin	-INF	0
bin	83.906	0
bin	83.939333333333	0
bin	83.972666666667	0
bin	84.006	0
bin	84.039333333333	0
bin	84.072666666667	0
bin	84.106	0
bin	84.139333333333	0
bin	84.172666666667	0
bin	84.206	0
bin	84.239333333333	0
bin	84.272666666667	0
bin	84.306	0
bin	84.339333333333	0
bin	84.372666666667	0
bin	84.406	1
bin	84.439333333333	0
bin	84.472666666667	0
bin	84.506	0
bin	84.539333333333	0
bin	84.572666666667	0
bin	84.606	0
bin	84.639333333333	0
bin	84.672666666667	0
bin	84.706	0
bin	84.739333333333	0
bin	84.772666666667	0
bin	84.806	0
bin	84.839333333333	0
bin	84.872666666667	0
bin	84.906	0
statistic RandomGeometricGraph.rgnv[19] 	arrivalPerc:histogram
field count 1
field mean 1
field stddev nan
field sum 1
field sqrsum 1
field min 1
field max 1
attr interpolationmode  none
attr source  count(arrival)
attr title  "arrival perc, histogram"
bin	-INF	0
bin	0	0
bin	1	1
bin	2	0
statistic RandomGeometricGraph.rgnv[20] 	arrivalTime:histogram
field count 1
field mean 89.416
field stddev nan
field sum 89.416
field sqrsum 7995.221056
field min 89.416
field max 89.416
attr interpolationmode  none
attr source  arrivalTime
attr title  "arrival time, histogram"
bin	-INF	0
bin	88.916	0
bin	88.949333333333	0
bin	88.982666666667	0
bin	89.016	0
bin	89.049333333333	0
bin	89.082666666667	0
bin	89.116	0
bin	89.149333333333	0
bin	89.182666666667	0
bin	89.216	0
bin	89.249333333333	0
bin	89.282666666667	0
bin	89.316	0
bin	89.349333333333	0
bin	89.382666666667	0
bin	89.416	1
bin	89.449333333333	0
bin	89.482666666667	0
bin	89.516	0
bin	89.549333333333	0
bin	89.582666666667	0
bin	89.616	0
bin	89.649333333333	0
bin	89.682666666667	0
bin	89.716	0
bin	89.749333333333	0
bin	89.782666666667	0
bin	89.816	0
bin	89.849333333333	0
bin	89.882666666667	0
bin	89.916	0
statistic RandomGeometricGraph.rgnv[20] 	arrivalPerc:histogram
field count 1
field mean 1
field stddev nan
field sum 1
field sqrsum 1
field min 1
field max 1
attr interpolationmode  none
attr source  count(arrival)
attr title  "arrival perc, histogram"
bin	-INF	0
bin	0	0
bin	1	1
bin	2	0
statistic RandomGeometricGraph.rgnv[21] 	arrivalTime:histogram
field count 1
field mean 148.868
field stddev nan
field sum 148.868
field sqrsum 22161.681424
field min 148.868
field max 148.868
attr interpolationmode  none
attr source  arrivalTime
attr title  "arrival time, histogram"
bin	-INF	0
bin	148.368	0
bin	148.40133333333	0
bin	148.43466666667	0
bin	148.468	0
bin	148.50133333333	0
bin	148.53466666667	0
bin	148.568	0
bin	148.60133333333	0
bin	148.63466666667	0
bin	148.668	0
bin	148.70133333333	0
bin	148.73466666667	0
bin	148.768	0
bin	148.80133333333	0
bin	148.83466666667	0
bin	148.868	1
bin	148.90133333333	0
bin	148.93466666667	0
bin	148.968	0
bin	149.00133333333	0
bin	149.03466666667	0
bin	149.068	0
bin	149.10133333333	0
bin	149.13466666667	0
bin	149.168	0
bin	149.20133333333	0
bin	149.23466666667	0
bin	149.268	0
bin	149.30133333333	0
bin	149.33466666667	0
bin	149.368	0
statistic RandomGeometricGraph.rgnv[21] 	arrivalPerc:histogram
field count 1
field mean 1
field stddev nan
field sum 1
field sqrsum 1
field min 1
field max 1
attr interpolationmode  none
attr source  count(arrival)
attr title  "arrival perc, histogram"
bin	-INF	0
bin	0	0
bin	1	1
bin	2	0
statistic RandomGeometricGraph.rgnv[22] 	arrivalTime:histogram
field count 1
field mean 221.129
field stddev nan
field sum 221.129
field sqrsum 48898.034641
field min 221.129
field max 221.129
attr interpolationmode  none
attr source  arrivalTime
attr title  "arrival time, histogram"
bin	-INF	0
bin	220.629	0
bin	220.66233333333	0
bin	220.69566666667	0
bin	220.729	0
bin	220.76233333333	0
bin	220.79566666667	0
bin	220.829	0
bin	220.86233333333	0
bin	220.89566666667	0
bin	220.929	0
bin	220.96233333333	0
bin	220.99566666667	0
bin	221.029	0
bin	221.06233333333	0
bin	221.09566666667	0
bin	221.129	1
bin	221.16233333333	0
bin	221.19566666667	0
bin	221.229	0
bin	221.26233333333	0
bin	221.29566666667	0
bin	221.329	0
bin	221.36233333333	0
bin	221.39566666667	0
bin	221.429	0
bin	221.46233333333	0
bin	221.49566666667	0
bin	221.529	0
bin	221.56233333333	0
bin	221.59566666667	0
bin	221.629	0
statistic RandomGeometricGraph.rgnv[22] 	arrivalPerc:histogram
field count 1
field mean 1
field stddev nan
field sum 1
field sqrsum 1
field min 1
field max 1
attr interpolationmode  none
attr source  count(arrival)
attr title  "arrival perc, histogram"
bin	-INF	0
bin	0	0
bin	1	1
bin	2	0
statistic RandomGeometricGraph.rgnv[23] 	arrivalTime:histogram
field count 1
field mean 101.637
field stddev nan
field sum 101.637
field sqrsum 10330.079769
field min 101.637
field max 101.637
attr interpolationmode  none
attr source  arrivalTime
attr title  "arrival time, histogram"
bin	-INF	0
bin	101.137	0
bin	101.17033333333	0
bin	101.20366666667	0
bin	101.237	0
bin	101.27033333333	0
bin	101.30366666667	0
bin	101.337	0
bin	101.37033333333	0
bin	101.40366666667	0
bin	101.437	0
bin	101.47033333333	0
bin	101.50366666667	0
bin	101.537	0
bin	101.57033333333	0
bin	101.60366666667	0
bin	101.637	1
bin	101.67033333333	0
bin	101.70366666667	0
bin	101.737	0
bin	101.77033333333	0
bin	101.80366666667	0
bin	101.837	0
bin	101.87033333333	0
bin	101.90366666667	0
bin	101.937	0
bin	101.97033333333	0
bin	102.00366666667	0
bin	102.037	0
bin	102.07033333333	0
bin	102.10366666667	0
bin	102.137	0
statistic RandomGeometricGraph.rgnv[23] 	arrivalPerc:histogram
field count 1
field mean 1
field stddev nan
field sum 1
field sqrsum 1
field min 1
field max 1
attr interpolationmode  none
attr source  count(arrival)
attr title  "arrival perc, histogram"
bin	-INF	0
bin	0	0
bin	1	1
bin	2	0
statistic RandomGeometricGraph.rgnv[24] 	arrivalTime:histogram
field count 1
field mean 37.693
field stddev nan
field sum 37.693
field sqrsum 1420.762249
field min 37.693
field max 37.693
attr interpolationmode  none
attr source  arrivalTime
attr title  "arrival time, histogram"
bin	-INF	0
bin	37.193	0
bin	37.226333333333	0
bin	37.259666666667	0
bin	37.293	0
bin	37.326333333333	0
bin	37.359666666667	0
bin	37.393	0
bin	37.426333333333	0
bin	37.459666666667	0
bin	37.493	0
bin	37.526333333333	0
bin	37.559666666667	0
bin	37.593	0
bin	37.626333333333	0
bin	37.659666666667	0
bin	37.693	1
bin	37.726333333333	0
bin	37.759666666667	0
bin	37.793	0
bin	37.826333333333	0
bin	37.859666666667	0
bin	37.893	0
bin	37.926333333333	0
bin	37.959666666667	0
bin	37.993	0
bin	38.026333333333	0
bin	38.059666666667	0
bin	38.093	0
bin	38.126333333333	0
bin	38.159666666667	0
bin	38.193	0
statistic RandomGeometricGraph.rgnv[24] 	arrivalPerc:histogram
field count 1
field mean 1
field stddev nan
field sum 1
field sqrsum 1
field min 1
field max 1
attr interpolationmode  none
attr source  count(arrival)
attr title  "arrival perc, histogram"
bin	-INF	0
bin	0	0
bin	1	1
bin	2	0
statistic RandomGeometricGraph.rgnv[25] 	arrivalTime:histogram
field count 1
field mean 196.109
field stddev nan
field sum 196.109
field sqrsum 38458.739881
field min 196.109
field max 196.109
attr interpolationmode  none
attr source  arrivalTime
attr title  "arrival time, histogram"
bin	-INF	0
bin	195.609	0
bin	195.64233333333	0
bin	195.67566666667	0
bin	195.709	0
bin	195.74233333333	0
bin	195.77566666667	0
bin	195.809	0
bin	195.84233333333	0
bin	195.87566666667	0
bin	195.909	0
bin	195.94233333333	0
bin	195.97566666667	0
bin	196.009	0
bin	196.04233333333	0
bin	196.07566666667	0
bin	196.109	1
bin	196.14233333333	0
bin	196.17566666667	0
bin	196.209	0
bin	196.24233333333	0
bin	196.27566666667	0
bin	196.309	0
bin	196.34233333333	0
bin	196.37566666667	0
bin	196.409	0
bin	196.44233333333	0
bin	196.47566666667	0
bin	196.509	0
bin	196.54233333333	0
bin	196.57566666667	0
bin	196.609	0
statistic RandomGeometricGraph.rgnv[25] 	arrivalPerc:histogram
field count 1
field mean 1
field stddev nan
field sum 1
field sqrsum 1
field min 1
field max 1
attr interpolationmode  none
attr source  count(arrival)
attr title  "arrival perc, histogram"
bin	-INF	0
bin	0	0
bin	1	1
bin	2	0
statistic RandomGeometricGraph.rgnv[26] 	arrivalTime:histogram
field count 1
field mean 106.637
field stddev nan
field sum 106.637
field sqrsum 11371.449769
field min 106.637
field max 106.637
attr interpolationmode  none
attr source  arrivalTime
attr title  "arrival time, histogram"
bin	-INF	0
bin	106.137	0
bin	106.17033333333	0
bin	106.20366666667	0
bin	106.237	0
bin	106.27033333333	0
bin	106.30366666667	0
bin	106.337	0
bin	106.37033333333	0
bin	106.40366666667	0
bin	106.437	0
bin	106.47033333333	0
bin	106.50366666667	0
bin	106.537	0
bin	106.57033333333	0
bin	106.60366666667	0
bin	106.637	1
bin	106.67033333333	0
bin	106.70366666667	0
bin	106.737	0
bin	106.77033333333	0
bin	106.80366666667	0
bin	106.837	0
bin	106.87033333333	0
bin	106.90366666667	0
bin	106.937	0
bin	106.97033333333	0
bin	107.00366666667	0
bin	107.037	0
bin	107.07033333333	0
bin	107.10366666667	0
bin	107.137	0
statistic RandomGeometricGraph.rgnv[26] 	arrivalPerc:histogram
field count 1
field mean 1
field stddev nan
field sum 1
field sqrsum 1
field min 1
field max 1
attr interpolationmode  none
attr source  count(arrival)
attr title  "arrival perc, histogram"
bin	-INF	0
bin	0	0
bin	1	1
bin	2	0
statistic RandomGeometricGraph.rgnv[27] 	arrivalTime:histogram
field count 1
field mean 263.36
field stddev nan
field sum 263.36
field sqrsum 69358.4896
field min 263.36
field max 263.36
attr interpolationmode  none
attr source  arrivalTime
attr title  "arrival time, histogram"
bin	-INF	0
bin	262.86	0
bin	262.89333333333	0
bin	262.92666666667	0
bin	262.96	0
bin	262.99333333333	0
bin	263.02666666667	0
bin	263.06	0
bin	263.09333333333	0
bin	263.12666666667	0
bin	263.16	0
bin	263.19333333333	0
bin	263.22666666667	0
bin	263.26	0
bin	263.29333333333	0
bin	263.32666666667	0
bin	263.36	1
bin	263.39333333333	0
bin	263.42666666667	0
bin	263.46	0
bin	263.49333333333	0
bin	263.52666666667	0
bin	263.56	0
bin	263.59333333333	0
bin	263.62666666667	0
bin	263.66	0
bin	263.69333333333	0
bin	263.72666666667	0
bin	263.76	0
bin	263.79333333333	0
bin	263.82666666667	0
bin	263.86	0
statistic RandomGeometricGraph.rgnv[27] 	arrivalPerc:histogram
field count 1
field mean 1
field stddev nan
field sum 1
field sqrsum 1
field min 1
field max 1
attr interpolationmode  none
attr source  count(arrival)
attr title  "arrival perc, histogram"
bin	-INF	0
bin	0	0
bin	1	1
bin	2	0
statistic RandomGeometricGraph.rgnv[28] 	arrivalTime:histogram
field count 1
field mean 178.888
field stddev nan
field sum 178.888
field sqrsum 32000.916544
field min 178.888
field max 178.888
attr interpolationmode  none
attr source  arrivalTime
attr title  "arrival time, histogram"
bin	-INF	0
bin	178.388	0
bin	178.42133333333	0
bin	178.45466666667	0
bin	178.488	0
bin	178.52133333333	0
bin	178.55466666667	0
bin	178.588	0
bin	178.62133333333	0
bin	178.65466666667	0
bin	178.688	0
bin	178.72133333333	0
bin	178.75466666667	0
bin	178.788	0
bin	178.82133333333	0
bin	178.85466666667	0
bin	178.888	1
bin	178.92133333333	0
bin	178.95466666667	0
bin	178.988	0
bin	179.02133333333	0
bin	179.05466666667	0
bin	179.088	0
bin	179.12133333333	0
bin	179.15466666667	0
bin	179.188	0
bin	179.22133333333	0
bin	179.25466666667	0
bin	179.288	0
bin	179.32133333333	0
bin	179.35466666667	0
bin	179.388	0
statistic RandomGeometricGraph.rgnv[28] 	arrivalPerc:histogram
field count 1
field mean 1
field stddev nan
field sum 1
field sqrsum 1
field min 1
field max 1
attr interpolationmode  none
attr source  count(arrival)
attr title  "arrival perc, histogram"
bin	-INF	0
bin	0	0
bin	1	1
bin	2	0
statistic RandomGeometricGraph.rgnv[29] 	arrivalTime:histogram
field count 1
field mean 37.713
field stddev nan
field sum 37.713
field sqrsum 1422.270369
field min 37.713
field max 37.713
attr interpolationmode  none
attr source  arrivalTime
attr title  "arrival time, histogram"
bin	-INF	0
bin	37.213	0
bin	37.246333333333	0
bin	37.279666666667	0
bin	37.313	0
bin	37.346333333333	0
bin	37.379666666667	0
bin	37.413	0
bin	37.446333333333	0
bin	37.479666666667	0
bin	37.513	0
bin	37.546333333333	0
bin	37.579666666667	0
bin	37.613	0
bin	37.646333333333	0
bin	37.679666666667	0
bin	37.713	1
bin	37.746333333333	0
bin	37.779666666667	0
bin	37.813	0
bin	37.846333333333	0
bin	37.879666666667	0
bin	37.913	0
bin	37.946333333333	0
bin	37.979666666667	0
bin	38.013	0
bin	38.046333333333	0
bin	38.079666666667	0
bin	38.113	0
bin	38.146333333333	0
bin	38.179666666667	0
bin	38.213	0
statistic RandomGeometricGraph.rgnv[29] 	arrivalPerc:histogram
field count 1
field mean 1
field stddev nan
field sum 1
field sqrsum 1
field min 1
field max 1
attr interpolationmode  none
attr source  count(arrival)
attr title  "arrival perc, histogram"
bin	-INF	0
bin	0	0
bin	1	1
bin	2	0
statistic RandomGeometricGraph.rgnv[30] 	arrivalTime:histogram
field count 1
field mean 158.868
field stddev nan
field sum 158.868
field sqrsum 25239.041424
field min 158.868
field max 158.868
attr interpolationmode  none
attr source  arrivalTime
attr title  "arrival time, histogram"
bin	-INF	0
bin	158.368	0
bin	158.40133333333	0
bin	158.43466666667	0
bin	158.468	0
bin	158.50133333333	0
bin	158.53466666667	0
bin	158.568	0
bin	158.60133333333	0
bin	158.63466666667	0
bin	158.668	0
bin	158.70133333333	0
bin	158.73466666667	0
bin	158.768	0
bin	158.80133333333	0
bin	158.83466666667	0
bin	158.868	1
bin	158.90133333333	0
bin	158.93466666667	0
bin	158.968	0
bin	159.00133333333	0
bin	159.03466666667	0
bin	159.068	0
bin	159.10133333333	0
bin	159.13466666667	0
bin	159.168	0
bin	159.20133333333	0
bin	159.23466666667	0
bin	159.268	0
bin	159.30133333333	0
bin	159.33466666667	0
bin	159.368	0
statistic RandomGeometricGraph.rgnv[30] 	arrivalPerc:histogram
field count 1
field mean 1
field stddev nan
field sum 1
field sqrsum 1
field min 1
field max 1
attr interpolationmode  none
attr source  count(arrival)
attr title  "arrival perc, histogram"
bin	-INF	0
bin	0	0
bin	1	1
bin	2	0
statistic RandomGeometricGraph.rgnv[31] 	arrivalTime:histogram
field count 1
field mean 49.924
field stddev nan
field sum 49.924
field sqrsum 2492.405776
field min 49.924
field max 49.924
attr interpolationmode  none
attr source  arrivalTime
attr title  "arrival time, histogram"
bin	-INF	0
bin	49.424	0
bin	49.457333333333	0
bin	49.490666666667	0
bin	49.524	0
bin	49.557333333333	0
bin	49.590666666667	0
bin	49.624	0
bin	49.657333333333	0
bin	49.690666666667	0
bin	49.724	0
bin	49.757333333333	0
bin	49.790666666667	0
bin	49.824	0
bin	49.857333333333	0
bin	49.890666666667	0
bin	49.924	1
bin	49.957333333333	0
bin	49.990666666667	0
bin	50.024	0
bin	50.057333333333	0
bin	50.090666666667	0
bin	50.124	0
bin	50.157333333333	0
bin	50.190666666667	0
bin	50.224	0
bin	50.257333333333	0
bin	50.290666666667	0
bin	50.324	0
bin	50.357333333333	0
bin	50.390666666667	0
bin	50.424	0
statistic RandomGeometricGraph.rgnv[31] 	arrivalPerc:histogram
field count 1
field mean 1
field stddev nan
field sum 1
field sqrsum 1
field min 1
field max 1
attr interpolationmode  none
attr source  count(arrival)
attr title  "arrival perc, histogram"
bin	-INF	0
bin	0	0
bin	1	1
bin	2	0
statistic RandomGeometricGraph.rgnv[32] 	arrivalTime:histogram
field count 1
field mean 158.878
field stddev nan
field sum 158.878
field sqrsum 25242.218884
field min 158.878
field max 158.878
attr interpolationmode  none
attr source  arrivalTime
attr title  "arrival time, histogram"
bin	-INF	0
bin	158.378	0
bin	158.41133333333	0
bin	158.44466666667	0
bin	158.478	0
bin	158.51133333333	0
bin	158.54466666667	0
bin	158.578	0
bin	158.61133333333	0
bin	158.64466666667	0
bin	158.678	0
bin	158.71133333333	0
bin	158.74466666667	0
bin	158.778	0
bin	158.81133333333	0
bin	158.84466666667	0
bin	158.878	1
bin	158.91133333333	0
bin	158.94466666667	0
bin	158.978	0
bin	159.01133333333	0
bin	159.04466666667	0
bin	159.078	0
bin	159.11133333333	0
bin	159.14466666667	0
bin	159.178	0
bin	159.21133333333	0
bin	159.24466666667	0
bin	159.278	0
bin	159.31133333333	0
bin	159.34466666667	0
bin	159.378	0
statistic RandomGeometricGraph.rgnv[32] 	arrivalPerc:histogram
field count 1
field mean 1
field stddev nan
field sum 1
field sqrsum 1
field min 1
field max 1
attr interpolationmode  none
attr source  count(arrival)
attr title  "arrival perc, histogram"
bin	-INF	0
bin	0	0
bin	1	1
bin	2	0
statistic RandomGeometricGraph.rgnv[33] 	arrivalTime:histogram
field count 1
field mean 275.561
field stddev nan
field sum 275.561
field sqrsum 75933.864721
field min 275.561
field max 275.561
attr interpolationmode  none
attr source  arrivalTime
attr title  "arrival time, histogram"
bin	-INF	0
bin	275.061	0
bin	275.09433333333	0
bin	275.12766666667	0
bin	275.161	0
bin	275.19433333333	0
bin	275.22766666667	0
bin	275.261	0
bin	275.29433333333	0
bin	275.32766666667	0
bin	275.361	0
bin	275.39433333333	0
bin	275.42766666667	0
bin	275.461	0
bin	275.49433333333	0
bin	275.52766666667	0
bin	275.561	1
bin	275.59433333333	0
bin	275.62766666667	0
bin	275.661	0
bin	275.69433333333	0
bin	275.72766666667	0
bin	275.761	0
bin	275.79433333333	0
bin	275.82766666667	0
bin	275.861	0
bin	275.89433333333	0
bin	275.92766666667	0
bin	275.961	0
bin	275.99433333333	0
bin	276.02766666667	0
bin	276.061	0
statistic RandomGeometricGraph.rgnv[33] 	arrivalPerc:histogram
field count 1
field mean 1
field stddev nan
field sum 1
field sqrsum 1
field min 1
field max 1
attr interpolationmode  none
attr source  count(arrival)
attr title  "arrival perc, histogram"
bin	-INF	0
bin	0	0
bin	1	1
bin	2	0
statistic RandomGeometricGraph.rgnv[34] 	arrivalTime:histogram
field count 1
field mean 72.175
field stddev nan
field sum 72.175
field sqrsum 5209.230625
field min 72.175
field max 72.175
attr interpolationmode  none
attr source  arrivalTime
attr title  "arrival time, histogram"
bin	-INF	0
bin	71.675	0
bin	71.708333333333	0
bin	71.741666666667	0
bin	71.775	0
bin	71.808333333333	0
bin	71.841666666667	0
bin	71.875	0
bin	71.908333333333	0
bin	71.941666666667	0
bin	71.975	0
bin	72.008333333333	0
bin	72.041666666667	0
bin	72.075	0
bin	72.108333333333	0
bin	72.141666666667	0
bin	72.175	1
bin	72.208333333333	0
bin	72.241666666667	0
bin	72.275	0
bin	72.308333333333	0
bin	72.341666666667	0
bin	72.375	0
bin	72.408333333333	0
bin	72.441666666667	0
bin	72.475	0
bin	72.508333333333	0
bin	72.541666666667	0
bin	72.575	0
bin	72.608333333333	0
bin	72.641666666667	0
bin	72.675	0
statistic RandomGeometricGraph.rgnv[34] 	arrivalPerc:histogram
field count 1
field mean 1
field stddev nan
field sum 1
field sqrsum 1
field min 1
field max 1
attr interpolationmode  none
attr source  count(arrival)
attr title  "arrival perc, histogram"
bin	-INF	0
bin	0	0
bin	1	1
bin	2	0
statistic RandomGeometricGraph.rgnv[35] 	arrivalTime:histogram
field count 1
field mean 305.591
field stddev nan
field sum 305.591
field sqrsum 93385.859281
field min 305.591
field max 305.591
attr interpolationmode  none
attr source  arrivalTime
attr title  "arrival time, histogram"
bin	-INF	0
bin	305.091	0
bin	305.12433333333	0
bin	305.15766666667	0
bin	305.191	0
bin	305.22433333333	0
bin	305.25766666667	0
bin	305.291	0
bin	305.32433333333	0
bin	305.35766666667	0
bin	305.391	0
bin	305.42433333333	0
bin	305.45766666667	0
bin	305.491	0
bin	305.52433333333	0
bin	305.55766666667	0
bin	305.591	1
bin	305.62433333333	0
bin	305.65766666667	0
bin	305.691	0
bin	305.72433333333	0
bin	305.75766666667	0
bin	305.791	0
bin	305.82433333333	0
bin	305.85766666667	0
bin	305.891	0
bin	305.92433333333	0
bin	305.95766666667	0
bin	305.991	0
bin	306.02433333333	0
bin	306.05766666667	0
bin	306.091	0
statistic RandomGeometricGraph.rgnv[35] 	arrivalPerc:histogram
field count 1
field mean 1
field stddev nan
field sum 1
field sqrsum 1
field min 1
field max 1
attr interpolationmode  none
attr source  count(arrival)
attr title  "arrival perc, histogram"
bin	-INF	0
bin	0	0
bin	1	1
bin	2	0
statistic RandomGeometricGraph.rgnv[36] 	arrivalTime:histogram
field count 1
field mean 186.099
field stddev nan
field sum 186.099
field sqrsum 34632.837801
field min 186.099
field max 186.099
attr interpolationmode  none
attr source  arrivalTime
attr title  "arrival time, histogram"
bin	-INF	0
bin	185.599	0
bin	185.63233333333	0
bin	185.66566666667	0
bin	185.699	0
bin	185.73233333333	0
bin	185.76566666667	0
bin	185.799	0
bin	185.83233333333	0
bin	185.86566666667	0
bin	185.899	0
bin	185.93233333333	0
bin	185.96566666667	0
bin	185.999	0
bin	186.03233333333	0
bin	186.06566666667	0
bin	186.099	1
bin	186.13233333333	0
bin	186.16566666667	0
bin	186.199	0
bin	186.23233333333	0
bin	186.26566666667	0
bin	186.299	0
bin	186.33233333333	0
bin	186.36566666667	0
bin	186.399	0
bin	186.43233333333	0
bin	186.46566666667	0
bin	186.499	0
bin	186.53233333333	0
bin	186.56566666667	0
bin	186.599	0
statistic RandomGeometricGraph.rgnv[36] 	arrivalPerc:histogram
field count 1
field mean 1
field stddev nan
field sum 1
field sqrsum 1
field min 1
field max 1
attr interpolationmode  none
attr source  count(arrival)
attr title  "arrival perc, histogram"
bin	-INF	0
bin	0	0
bin	1	1
bin	2	0
statistic RandomGeometricGraph.rgnv[37] 	arrivalTime:histogram
field count 1
field mean 168.888
field stddev nan
field sum 168.888
field sqrsum 28523.156544
field min 168.888
field max 168.888
attr interpolationmode  none
attr source  arrivalTime
attr title  "arrival time, histogram"
bin	-INF	0
bin	168.388	0
bin	168.42133333333	0
bin	168.45466666667	0
bin	168.488	0
bin	168.52133333333	0
bin	168.55466666667	0
bin	168.588	0
bin	168.62133333333	0
bin	168.65466666667	0
bin	168.688	0
bin	168.72133333333	0
bin	168.75466666667	0
bin	168.788	0
bin	168.82133333333	0
bin	168.85466666667	0
bin	168.888	1
bin	168.92133333333	0
bin	168.95466666667	0
bin	168.988	0
bin	169.02133333333	0
bin	169.05466666667	0
bin	169.088	0
bin	169.12133333333	0
bin	169.15466666667	0
bin	169.188	0
bin	169.22133333333	0
bin	169.25466666667	0
bin	169.288	0
bin	169.32133333333	0
bin	169.35466666667	0
bin	169.388	0
statistic RandomGeometricGraph.rgnv[37] 	arrivalPerc:histogram
field count 1
field mean 1
field stddev nan
field sum 1
field sqrsum 1
field min 1
field max 1
attr interpolationmode  none
attr source  count(arrival)
attr title  "arrival perc, histogram"
bin	-INF	0
bin	0	0
bin	1	1
bin	2	0
statistic RandomGeometricGraph.rgnv[38] 	arrivalTime:histogram
field count 1
field mean 49.944
field stddev nan
field sum 49.944
field sqrsum 2494.403136
field min 49.944
field max 49.944
attr interpolationmode  none
attr source  arrivalTime
attr title  "arrival time, histogram"
bin	-INF	0
bin	49.444	0
bin	49.477333333333	0
bin	49.510666666667	0
bin	49.544	0
bin	49.577333333333	0
bin	49.610666666667	0
bin	49.644	0
bin	49.677333333333	0
bin	49.710666666667	0
bin	49.744	0
bin	49.777333333333	0
bin	49.810666666667	0
bin	49.844	0
bin	49.877333333333	0
bin	49.910666666667	0
bin	49.944	1
bin	49.977333333333	0
bin	50.010666666667	0
bin	50.044	0
bin	50.077333333333	0
bin	50.110666666667	0
bin	50.144	0
bin	50.177333333333	0
bin	50.210666666667	0
bin	50.244	0
bin	50.277333333333	0
bin	50.310666666667	0
bin	50.344	0
bin	50.377333333333	0
bin	50.410666666667	0
bin	50.444	0
statistic RandomGeometricGraph.rgnv[38] 	arrivalPerc:histogram
field count 1
field mean 1
field stddev nan
field sum 1
field sqrsum 1
field min 1
field max 1
attr interpolationmode  none
attr source  count(arrival)
attr title  "arrival perc, histogram"
bin	-INF	0
bin	0	0
bin	1	1
bin	2	0
statistic RandomGeometricGraph.rgnv[39] 	arrivalTime:histogram
field count 1
field mean 106.637
field stddev nan
field sum 106.637
field sqrsum 11371.449769
field min 106.637
field max 106.637
attr interpolationmode  none
attr source  arrivalTime
attr title  "arrival time, histogram"
bin	-INF	0
bin	106.137	0
bin	106.17033333333	0
bin	106.20366666667	0
bin	106.237	0
bin	106.27033333333	0
bin	106.30366666667	0
bin	106.337	0
bin	106.37033333333	0
bin	106.40366666667	0
bin	106.437	0
bin	106.47033333333	0
bin	106.50366666667	0
bin	106.537	0
bin	106.57033333333	0
bin	106.60366666667	0
bin	106.637	1
bin	106.67033333333	0
bin	106.70366666667	0
bin	106.737	0
bin	106.77033333333	0
bin	106.80366666667	0
bin	106.837	0
bin	106.87033333333	0
bin	106.90366666667	0
bin	106.937	0
bin	106.97033333333	0
bin	107.00366666667	0
bin	107.037	0
bin	107.07033333333	0
bin	107.10366666667	0
bin	107.137	0
statistic RandomGeometricGraph.rgnv[39] 	arrivalPerc:histogram
field count 1
field mean 1
field stddev nan
field sum 1
field sqrsum 1
field min 1
field max 1
attr interpolationmode  none
attr source  count(arrival)
attr title  "arrival perc, histogram"
bin	-INF	0
bin	0	0
bin	1	1
bin	2	0
statistic RandomGeometricGraph.rgnv[40] 	arrivalTime:histogram
field count 1
field mean 206.109
field stddev nan
field sum 206.109
field sqrsum 42480.919881
field min 206.109
field max 206.109
attr interpolationmode  none
attr source  arrivalTime
attr title  "arrival time, histogram"
bin	-INF	0
bin	205.609	0
bin	205.64233333333	0
bin	205.67566666667	0
bin	205.709	0
bin	205.74233333333	0
bin	205.77566666667	0
bin	205.809	0
bin	205.84233333333	0
bin	205.87566666667	0
bin	205.909	0
bin	205.94233333333	0
bin	205.97566666667	0
bin	206.009	0
bin	206.04233333333	0
bin	206.07566666667	0
bin	206.109	1
bin	206.14233333333	0
bin	206.17566666667	0
bin	206.209	0
bin	206.24233333333	0
bin	206.27566666667	0
bin	206.309	0
bin	206.34233333333	0
bin	206.37566666667	0
bin	206.409	0
bin	206.44233333333	0
bin	206.47566666667	0
bin	206.509	0
bin	206.54233333333	0
bin	206.57566666667	0
bin	206.609	0
statistic RandomGeometricGraph.rgnv[40] 	arrivalPerc:histogram
field count 1
field mean 1
field stddev nan
field sum 1
field sqrsum 1
field min 1
field max 1
attr interpolationmode  none
attr source  count(arrival)
attr title  "arrival perc, histogram"
bin	-INF	0
bin	0	0
bin	1	1
bin	2	0
statistic RandomGeometricGraph.rgnv[41] 	arrivalTime:histogram
field count 1
field mean 74.396
field stddev nan
field sum 74.396
field sqrsum 5534.764816
field min 74.396
field max 74.396
attr interpolationmode  none
attr source  arrivalTime
attr title  "arrival time, histogram"
bin	-INF	0
bin	73.896	0
bin	73.929333333333	0
bin	73.962666666667	0
bin	73.996	0
bin	74.029333333333	0
bin	74.062666666667	0
bin	74.096	0
bin	74.129333333333	0
bin	74.162666666667	0
bin	74.196	0
bin	74.229333333333	0
bin	74.262666666667	0
bin	74.296	0
bin	74.329333333333	0
bin	74.362666666667	0
bin	74.396	1
bin	74.429333333333	0
bin	74.462666666667	0
bin	74.496	0
bin	74.529333333333	0
bin	74.562666666667	0
bin	74.596	0
bin	74.629333333333	0
bin	74.662666666667	0
bin	74.696	0
bin	74.729333333333	0
bin	74.762666666667	0
bin	74.796	0
bin	74.829333333333	0
bin	74.862666666667	0
bin	74.896	0
statistic RandomGeometricGraph.rgnv[41] 	arrivalPerc:histogram
field count 1
field mean 1
field stddev nan
field sum 1
field sqrsum 1
field min 1
field max 1
attr interpolationmode  none
attr source  count(arrival)
attr title  "arrival perc, histogram"
bin	-INF	0
bin	0	0
bin	1	1
bin	2	0
statistic RandomGeometricGraph.rgnv[42] 	arrivalTime:histogram
field count 1
field mean 253.35
field stddev nan
field sum 253.35
field sqrsum 64186.2225
field min 253.35
field max 253.35
attr interpolationmode  none
attr source  arrivalTime
attr title  "arrival time, histogram"
bin	-INF	0
bin	252.85	0
bin	252.88333333333	0
bin	252.91666666667	0
bin	252.95	0
bin	252.98333333333	0
bin	253.01666666667	0
bin	253.05	0
bin	253.08333333333	0
bin	253.11666666667	0
bin	253.15	0
bin	253.18333333333	0
bin	253.21666666667	0
bin	253.25	0
bin	253.28333333333	0
bin	253.31666666667	0
bin	253.35	1
bin	253.38333333333	0
bin	253.41666666667	0
bin	253.45	0
bin	253.48333333333	0
bin	253.51666666667	0
bin	253.55	0
bin	253.58333333333	0
bin	253.61666666667	0
bin	253.65	0
bin	253.68333333333	0
bin	253.71666666667	0
bin	253.75	0
bin	253.78333333333	0
bin	253.81666666667	0
bin	253.85	0
statistic RandomGeometricGraph.rgnv[42] 	arrivalPerc:histogram
field count 1
field mean 1
field stddev nan
field sum 1
field sqrsum 1
field min 1
field max 1
attr interpolationmode  none
attr source  count(arrival)
attr title  "arrival perc, histogram"
bin	-INF	0
bin	0	0
bin	1	1
bin	2	0
statistic RandomGeometricGraph.rgnv[43] 	arrivalTime:histogram
field count 1
field mean 121.647
field stddev nan
field sum 121.647
field sqrsum 14797.992609
field min 121.647
field max 121.647
attr interpolationmode  none
attr source  arrivalTime
attr title  "arrival time, histogram"
bin	-INF	0
bin	121.147	0
bin	121.18033333333	0
bin	121.21366666667	0
bin	121.247	0
bin	121.28033333333	0
bin	121.31366666667	0
bin	121.347	0
bin	121.38033333333	0
bin	121.41366666667	0
bin	121.447	0
bin	121.48033333333	0
bin	121.51366666667	0
bin	121.547	0
bin	121.58033333333	0
bin	121.61366666667	0
bin	121.647	1
bin	121.68033333333	0
bin	121.71366666667	0
bin	121.747	0
bin	121.78033333333	0
bin	121.81366666667	0
bin	121.847	0
bin	121.88033333333	0
bin	121.91366666667	0
bin	121.947	0
bin	121.98033333333	0
bin	122.01366666667	0
bin	122.047	0
bin	122.08033333333	0
bin	122.11366666667	0
bin	122.147	0
statistic RandomGeometricGraph.rgnv[43] 	arrivalPerc:histogram
field count 1
field mean 1
field stddev nan
field sum 1
field sqrsum 1
field min 1
field max 1
attr interpolationmode  none
attr source  count(arrival)
attr title  "arrival perc, histogram"
bin	-INF	0
bin	0	0
bin	1	1
bin	2	0
statistic RandomGeometricGraph.rgnv[44] 	arrivalTime:histogram
field count 1
field mean 163.878
field stddev nan
field sum 163.878
field sqrsum 26855.998884
field min 163.878
field max 163.878
attr interpolationmode  none
attr source  arrivalTime
attr title  "arrival time, histogram"
bin	-INF	0
bin	163.378	0
bin	163.41133333333	0
bin	163.44466666667	0
bin	163.478	0
bin	163.51133333333	0
bin	163.54466666667	0
bin	163.578	0
bin	163.61133333333	0
bin	163.64466666667	0
bin	163.678	0
bin	163.71133333333	0
bin	163.74466666667	0
bin	163.778	0
bin	163.81133333333	0
bin	163.84466666667	0
bin	163.878	1
bin	163.91133333333	0
bin	163.94466666667	0
bin	163.978	0
bin	164.01133333333	0
bin	164.04466666667	0
bin	164.078	0
bin	164.11133333333	0
bin	164.14466666667	0
bin	164.178	0
bin	164.21133333333	0
bin	164.24466666667	0
bin	164.278	0
bin	164.31133333333	0
bin	164.34466666667	0
bin	164.378	0
statistic RandomGeometricGraph.rgnv[44] 	arrivalPerc:histogram
field count 1
field mean 1
field stddev nan
field sum 1
field sqrsum 1
field min 1
field max 1
attr interpolationmode  none
attr source  count(arrival)
attr title  "arrival perc, histogram"
bin	-INF	0
bin	0	0
bin	1	1
bin	2	0
statistic RandomGeometricGraph.rgnv[45] 	arrivalTime:histogram
field count 1
field mean 89.426
field stddev nan
field sum 89.426
field sqrsum 7997.009476
field min 89.426
field max 89.426
attr interpolationmode  none
attr source  arrivalTime
attr title  "arrival time, histogram"
bin	-INF	0
bin	88.926	0
bin	88.959333333333	0
bin	88.992666666667	0
bin	89.026	0
bin	89.059333333333	0
bin	89.092666666667	0
bin	89.126	0
bin	89.159333333333	0
bin	89.192666666667	0
bin	89.226	0
bin	89.259333333333	0
bin	89.292666666667	0
bin	89.326	0
bin	89.359333333333	0
bin	89.392666666667	0
bin	89.426	1
bin	89.459333333333	0
bin	89.492666666667	0
bin	89.526	0
bin	89.559333333333	0
bin	89.592666666667	0
bin	89.626	0
bin	89.659333333333	0
bin	89.692666666667	0
bin	89.726	0
bin	89.759333333333	0
bin	89.792666666667	0
bin	89.826	0
bin	89.859333333333	0
bin	89.892666666667	0
bin	89.926	0
statistic RandomGeometricGraph.rgnv[45] 	arrivalPerc:histogram
field count 1
field mean 1
field stddev nan
field sum 1
field sqrsum 1
field min 1
field max 1
attr interpolationmode  none
attr source  count(arrival)
attr title  "arrival perc, histogram"
bin	-INF	0
bin	0	0
bin	1	1
bin	2	0
statistic RandomGeometricGraph.rgnv[46] 	arrivalTime:histogram
field count 1
field mean 163.878
field stddev nan
field sum 163.878
field sqrsum 26855.998884
field min 163.878
field max 163.878
attr interpolationmode  none
attr source  arrivalTime
attr title  "arrival time, histogram"
bin	-INF	0
bin	163.378	0
bin	163.41133333333	0
bin	163.44466666667	0
bin	163.478	0
bin	163.51133333333	0
bin	163.54466666667	0
bin	163.578	0
bin	163.61133333333	0
bin	163.64466666667	0
bin	163.678	0
bin	163.71133333333	0
bin	163.74466666667	0
bin	163.778	0
bin	163.81133333333	0
bin	163.84466666667	0
bin	163.878	1
bin	163.91133333333	0
bin	163.94466666667	0
bin	163.978	0
bin	164.01133333333	0
bin	164.04466666667	0
bin	164.078	0
bin	164.11133333333	0
bin	164.14466666667	0
bin	164.178	0
bin	164.21133333333	0
bin	164.24466666667	0
bin	164.278	0
bin	164.31133333333	0
bin	164.34466666667	0
bin	164.378	0
statistic RandomGeometricGraph.rgnv[46] 	arrivalPerc:histogram
field count 1
field mean 1
field stddev nan
field sum 1
field sqrsum 1
field min 1
field max 1
attr interpolationmode  none
attr source  count(arrival)
attr title  "arrival perc, histogram"
bin	-INF	0
bin	0	0
bin	1	1
bin	2	0
statistic RandomGeometricGraph.rgnv[47] 	arrivalTime:histogram
field count 1
field mean 62.165
field stddev nan
field sum 62.165
field sqrsum 3864.487225
field min 62.165
field max 62.165
attr interpolationmode  none
attr source  arrivalTime
attr title  "arrival time, histogram"
bin	-INF	0
bin	61.665	0
bin	61.698333333333	0
bin	61.731666666667	0
bin	61.765	0
bin	61.798333333333	0
bin	61.831666666667	0
bin	61.865	0
bin	61.898333333333	0
bin	61.931666666667	0
bin	61.965	0
bin	61.998333333333	0
bin	62.031666666667	0
bin	62.065	0
bin	62.098333333333	0
bin	62.131666666667	0
bin	62.165	1
bin	62.198333333333	0
bin	62.231666666667	0
bin	62.265	0
bin	62.298333333333	0
bin	62.331666666667	0
bin	62.365	0
bin	62.398333333333	0
bin	62.431666666667	0
bin	62.465	0
bin	62.498333333333	0
bin	62.531666666667	0
bin	62.565	0
bin	62.598333333333	0
bin	62.631666666667	0
bin	62.665	0
statistic RandomGeometricGraph.rgnv[47] 	arrivalPerc:histogram
field count 1
field mean 1
field stddev nan
field sum 1
field sqrsum 1
field min 1
field max 1
attr interpolationmode  none
attr source  count(arrival)
attr title  "arrival perc, histogram"
bin	-INF	0
bin	0	0
bin	1	1
bin	2	0
statistic RandomGeometricGraph.rgnv[48] 	arrivalTime:histogram
field count 1
field mean 158.878
field stddev nan
field sum 158.878
field sqrsum 25242.218884
field min 158.878
field max 158.878
attr interpolationmode  none
attr source  arrivalTime
attr title  "arrival time, histogram"
bin	-INF	0
bin	158.378	0
bin	158.41133333333	0
bin	158.44466666667	0
bin	158.478	0
bin	158.51133333333	0
bin	158.54466666667	0
bin	158.578	0
bin	158.61133333333	0
bin	158.64466666667	0
bin	158.678	0
bin	158.71133333333	0
bin	158.74466666667	0
bin	158.778	0
bin	158.81133333333	0
bin	158.84466666667	0
bin	158.878	1
bin	158.91133333333	0
bin	158.94466666667	0
bin	158.978	0
bin	159.01133333333	0
bin	159.04466666667	0
bin	159.078	0
bin	159.11133333333	0
bin	159.14466666667	0
bin	159.178	0
bin	159.21133333333	0
bin	159.24466666667	0
bin	159.278	0
bin	159.31133333333	0
bin	159.34466666667	0
bin	159.378	0
statistic RandomGeometricGraph.rgnv[48] 	arrivalPerc:histogram
field count 1
field mean 1
field stddev nan
field sum 1
field sqrsum 1
field min 1
field max 1
attr interpolationmode  none
attr source  count(arrival)
attr title  "arrival perc, histogram"
bin	-INF	0
bin	0	0
bin	1	1
bin	2	0
statistic RandomGeometricGraph.rgnv[49] 	arrivalTime:histogram
field count 1
field mean 91.617
field stddev nan
field sum 91.617
field sqrsum 8393.674689
field min 91.617
field max 91.617
attr interpolationmode  none
attr source  arrivalTime
attr title  "arrival time, histogram"
bin	-INF	0
bin	91.117	0
bin	91.150333333333	0
bin	91.183666666667	0
bin	91.217	0
bin	91.250333333333	0
bin	91.283666666667	0
bin	91.317	0
bin	91.350333333333	0
bin	91.383666666667	0
bin	91.417	0
bin	91.450333333333	0
bin	91.483666666667	0
bin	91.517	0
bin	91.550333333333	0
bin	91.583666666667	0
bin	91.617	1
bin	91.650333333333	0
bin	91.683666666667	0
bin	91.717	0
bin	91.750333333333	0
bin	91.783666666667	0
bin	91.817	0
bin	91.850333333333	0
bin	91.883666666667	0
bin	91.917	0
bin	91.950333333333	0
bin	91.983666666667	0
bin	92.017	0
bin	92.050333333333	0
bin	92.083666666667	0
bin	92.117	0
statistic RandomGeometricGraph.rgnv[49] 	arrivalPerc:histogram
field count 1
field mean 1
field stddev nan
field sum 1
field sqrsum 1
field min 1
field max 1
attr interpolationmode  none
attr source  count(arrival)
attr title  "arrival perc, histogram"
bin	-INF	0
bin	0	0
bin	1	1
bin	2	0
statistic RandomGeometricGraph.rgnv[50] 	arrivalTime:histogram
field count 1
field mean 67.185
field stddev nan
field sum 67.185
field sqrsum 4513.824225
field min 67.185
field max 67.185
attr interpolationmode  none
attr source  arrivalTime
attr title  "arrival time, histogram"
bin	-INF	0
bin	66.685	0
bin	66.718333333333	0
bin	66.751666666667	0
bin	66.785	0
bin	66.818333333333	0
bin	66.851666666667	0
bin	66.885	0
bin	66.918333333333	0
bin	66.951666666667	0
bin	66.985	0
bin	67.018333333333	0
bin	67.051666666667	0
bin	67.085	0
bin	67.118333333333	0
bin	67.151666666667	0
bin	67.185	1
bin	67.218333333333	0
bin	67.251666666667	0
bin	67.285	0
bin	67.318333333333	0
bin	67.351666666667	0
bin	67.385	0
bin	67.418333333333	0
bin	67.451666666667	0
bin	67.485	0
bin	67.518333333333	0
bin	67.551666666667	0
bin	67.585	0
bin	67.618333333333	0
bin	67.651666666667	0
bin	67.685	0
statistic RandomGeometricGraph.rgnv[50] 	arrivalPerc:histogram
field count 1
field mean 1
field stddev nan
field sum 1
field sqrsum 1
field min 1
field max 1
attr interpolationmode  none
attr source  count(arrival)
attr title  "arrival perc, histogram"
bin	-INF	0
bin	0	0
bin	1	1
bin	2	0
statistic RandomGeometricGraph.rgnv[51] 	arrivalTime:histogram
field count 1
field mean 138.858
field stddev nan
field sum 138.858
field sqrsum 19281.544164
field min 138.858
field max 138.858
attr interpolationmode  none
attr source  arrivalTime
attr title  "arrival time, histogram"
bin	-INF	0
bin	138.358	0
bin	138.39133333333	0
bin	138.42466666667	0
bin	138.458	0
bin	138.49133333333	0
bin	138.52466666667	0
bin	138.558	0
bin	138.59133333333	0
bin	138.62466666667	0
bin	138.658	0
bin	138.69133333333	0
bin	138.72466666667	0
bin	138.758	0
bin	138.79133333333	0
bin	138.82466666667	0
bin	138.858	1
bin	138.89133333333	0
bin	138.92466666667	0
bin	138.958	0
bin	138.99133333333	0
bin	139.02466666667	0
bin	139.058	0
bin	139.09133333333	0
bin	139.12466666667	0
bin	139.158	0
bin	139.19133333333	0
bin	139.22466666667	0
bin	139.258	0
bin	139.29133333333	0
bin	139.32466666667	0
bin	139.358	0
statistic RandomGeometricGraph.rgnv[51] 	arrivalPerc:histogram
field count 1
field mean 1
field stddev nan
field sum 1
field sqrsum 1
field min 1
field max 1
attr interpolationmode  none
attr source  count(arrival)
attr title  "arrival perc, histogram"
bin	-INF	0
bin	0	0
bin	1	1
bin	2	0
statistic RandomGeometricGraph.rgnv[52] 	arrivalTime:histogram
field count 0
field mean nan
field stddev nan
field sum 0
field sqrsum 0
field min nan
field max nan
attr interpolationmode  none
attr source  arrivalTime
attr title  "arrival time, histogram"
bin	-INF	0
bin	-0.5	0
bin	-0.46666666666667	0
bin	-0.43333333333333	0
bin	-0.4	0
bin	-0.36666666666667	0
bin	-0.33333333333333	0
bin	-0.3	0
bin	-0.26666666666667	0
bin	-0.23333333333333	0
bin	-0.2	0
bin	-0.16666666666667	0
bin	-0.13333333333333	0
bin	-0.1	0
bin	-0.066666666666667	0
bin	-0.033333333333333	0
bin	0	0
bin	0.033333333333333	0
bin	0.066666666666667	0
bin	0.1	0
bin	0.13333333333333	0
bin	0.16666666666667	0
bin	0.2	0
bin	0.23333333333333	0
bin	0.26666666666667	0
bin	0.3	0
bin	0.33333333333333	0
bin	0.36666666666667	0
bin	0.4	0
bin	0.43333333333333	0
bin	0.46666666666667	0
bin	0.5	0
statistic RandomGeometricGraph.rgnv[52] 	arrivalPerc:histogram
field count 0
field mean nan
field stddev nan
field sum 0
field sqrsum 0
field min nan
field max nan
attr interpolationmode  none
attr source  count(arrival)
attr title  "arrival perc, histogram"
bin	-INF	0
bin	-0.5	0
bin	-0.46666666666667	0
bin	-0.43333333333333	0
bin	-0.4	0
bin	-0.36666666666667	0
bin	-0.33333333333333	0
bin	-0.3	0
bin	-0.26666666666667	0
bin	-0.23333333333333	0
bin	-0.2	0
bin	-0.16666666666667	0
bin	-0.13333333333333	0
bin	-0.1	0
bin	-0.066666666666667	0
bin	-0.033333333333333	0
bin	0	0
bin	0.033333333333333	0
bin	0.066666666666667	0
bin	0.1	0
bin	0.13333333333333	0
bin	0.16666666666667	0
bin	0.2	0
bin	0.23333333333333	0
bin	0.26666666666667	0
bin	0.3	0
bin	0.33333333333333	0
bin	0.36666666666667	0
bin	0.4	0
bin	0.43333333333333	0
bin	0.46666666666667	0
bin	0.5	0
statistic RandomGeometricGraph.rgnv[53] 	arrivalTime:histogram
field count 1
field mean 290.571
field stddev nan
field sum 290.571
field sqrsum 84431.506041
field min 290.571
field max 290.571
attr interpolationmode  none
attr source  arrivalTime
attr title  "arrival time, histogram"
bin	-INF	0
bin	290.071	0
bin	290.10433333333	0
bin	290.13766666667	0
bin	290.171	0
bin	290.20433333333	0
bin	290.23766666667	0
bin	290.271	0
bin	290.30433333333	0
bin	290.33766666667	0
bin	290.371	0
bin	290.40433333333	0
bin	290.43766666667	0
bin	290.471	0
bin	290.50433333333	0
bin	290.53766666667	0
bin	290.571	1
bin	290.60433333333	0
bin	290.63766666667	0
bin	290.671	0
bin	290.70433333333	0
bin	290.73766666667	0
bin	290.771	0
bin	290.80433333333	0
bin	290.83766666667	0
bin	290.871	0
bin	290.90433333333	0
bin	290.93766666667	0
bin	290.971	0
bin	291.00433333333	0
bin	291.03766666667	0
bin	291.071	0
statistic RandomGeometricGraph.rgnv[53] 	arrivalPerc:histogram
field count 1
field mean 1
field stddev nan
field sum 1
field sqrsum 1
field min 1
field max 1
attr interpolationmode  none
attr source  count(arrival)
attr title  "arrival perc, histogram"
bin	-INF	0
bin	0	0
bin	1	1
bin	2	0
statistic RandomGeometricGraph.rgnv[54] 	arrivalTime:histogram
field count 1
field mean 243.34
field stddev nan
field sum 243.34
field sqrsum 59214.3556
field min 243.34
field max 243.34
attr interpolationmode  none
attr source  arrivalTime
attr title  "arrival time, histogram"
bin	-INF	0
bin	242.84	0
bin	242.87333333333	0
bin	242.90666666667	0
bin	242.94	0
bin	242.97333333333	0
bin	243.00666666667	0
bin	243.04	0
bin	243.07333333333	0
bin	243.10666666667	0
bin	243.14	0
bin	243.17333333333	0
bin	243.20666666667	0
bin	243.24	0
bin	243.27333333333	0
bin	243.30666666667	0
bin	243.34	1
bin	243.37333333333	0
bin	243.40666666667	0
bin	243.44	0
bin	243.47333333333	0
bin	243.50666666667	0
bin	243.54	0
bin	243.57333333333	0
bin	243.60666666667	0
bin	243.64	0
bin	243.67333333333	0
bin	243.70666666667	0
bin	243.74	0
bin	243.77333333333	0
bin	243.80666666667	0
bin	243.84	0
statistic RandomGeometricGraph.rgnv[54] 	arrivalPerc:histogram
field count 1
field mean 1
field stddev nan
field sum 1
field sqrsum 1
field min 1
field max 1
attr interpolationmode  none
attr source  count(arrival)
attr title  "arrival perc, histogram"
bin	-INF	0
bin	0	0
bin	1	1
bin	2	0
statistic RandomGeometricGraph.rgnv[55] 	arrivalTime:histogram
field count 1
field mean 101.627
field stddev nan
field sum 101.627
field sqrsum 10328.047129
field min 101.627
field max 101.627
attr interpolationmode  none
attr source  arrivalTime
attr title  "arrival time, histogram"
bin	-INF	0
bin	101.127	0
bin	101.16033333333	0
bin	101.19366666667	0
bin	101.227	0
bin	101.26033333333	0
bin	101.29366666667	0
bin	101.327	0
bin	101.36033333333	0
bin	101.39366666667	0
bin	101.427	0
bin	101.46033333333	0
bin	101.49366666667	0
bin	101.527	0
bin	101.56033333333	0
bin	101.59366666667	0
bin	101.627	1
bin	101.66033333333	0
bin	101.69366666667	0
bin	101.727	0
bin	101.76033333333	0
bin	101.79366666667	0
bin	101.827	0
bin	101.86033333333	0
bin	101.89366666667	0
bin	101.927	0
bin	101.96033333333	0
bin	101.99366666667	0
bin	102.027	0
bin	102.06033333333	0
bin	102.09366666667	0
bin	102.127	0
statistic RandomGeometricGraph.rgnv[55] 	arrivalPerc:histogram
field count 1
field mean 1
field stddev nan
field sum 1
field sqrsum 1
field min 1
field max 1
attr interpolationmode  none
attr source  count(arrival)
attr title  "arrival perc, histogram"
bin	-INF	0
bin	0	0
bin	1	1
bin	2	0
statistic RandomGeometricGraph.rgnv[56] 	arrivalTime:histogram
field count 1
field mean 121.647
field stddev nan
field sum 121.647
field sqrsum 14797.992609
field min 121.647
field max 121.647
attr interpolationmode  none
attr source  arrivalTime
attr title  "arrival time, histogram"
bin	-INF	0
bin	121.147	0
bin	121.18033333333	0
bin	121.21366666667	0
bin	121.247	0
bin	121.28033333333	0
bin	121.31366666667	0
bin	121.347	0
bin	121.38033333333	0
bin	121.41366666667	0
bin	121.447	0
bin	121.48033333333	0
bin	121.51366666667	0
bin	121.547	0
bin	121.58033333333	0
bin	121.61366666667	0
bin	121.647	1
bin	121.68033333333	0
bin	121.71366666667	0
bin	121.747	0
bin	121.78033333333	0
bin	121.81366666667	0
bin	121.847	0
bin	121.88033333333	0
bin	121.91366666667	0
bin	121.947	0
bin	121.98033333333	0
bin	122.01366666667	0
bin	122.047	0
bin	122.08033333333	0
bin	122.11366666667	0
bin	122.147	0
statistic RandomGeometricGraph.rgnv[56] 	arrivalPerc:histogram
field count 1
field mean 1
field stddev nan
field sum 1
field sqrsum 1
field min 1
field max 1
attr interpolationmode  none
attr source  count(arrival)
attr title  "arrival perc, histogram"
bin	-INF	0
bin	0	0
bin	1	1
bin	2	0
statistic RandomGeometricGraph.rgnv[57] 	arrivalTime:histogram
field count 1
field mean 126.647
field stddev nan
field sum 126.647
field sqrsum 16039.462609
field min 126.647
field max 126.647
attr interpolationmode  none
attr source  arrivalTime
attr title  "arrival time, histogram"
bin	-INF	0
bin	126.147	0
bin	126.18033333333	0
bin	126.21366666667	0
bin	126.247	0
bin	126.28033333333	0
bin	126.31366666667	0
bin	126.347	0
bin	126.38033333333	0
bin	126.41366666667	0
bin	126.447	0
bin	126.48033333333	0
bin	126.51366666667	0
bin	126.547	0
bin	126.58033333333	0
bin	126.61366666667	0
bin	126.647	1
bin	126.68033333333	0
bin	126.71366666667	0
bin	126.747	0
bin	126.78033333333	0
bin	126.81366666667	0
bin	126.847	0
bin	126.88033333333	0
bin	126.91366666667	0
bin	126.947	0
bin	126.98033333333	0
bin	127.01366666667	0
bin	127.047	0
bin	127.08033333333	0
bin	127.11366666667	0
bin	127.147	0
statistic RandomGeometricGraph.rgnv[57] 	arrivalPerc:histogram
field count 1
field mean 1
field stddev nan
field sum 1
field sqrsum 1
field min 1
field max 1
attr interpolationmode  none
attr source  count(arrival)
attr title  "arrival perc, histogram"
bin	-INF	0
bin	0	0
bin	1	1
bin	2	0
statistic RandomGeometricGraph.rgnv[58] 	arrivalTime:histogram
field count 1
field mean 143.868
field stddev nan
field sum 143.868
field sqrsum 20698.001424
field min 143.868
field max 143.868
attr interpolationmode  none
attr source  arrivalTime
attr title  "arrival time, histogram"
bin	-INF	0
bin	143.368	0
bin	143.40133333333	0
bin	143.43466666667	0
bin	143.468	0
bin	143.50133333333	0
bin	143.53466666667	0
bin	143.568	0
bin	143.60133333333	0
bin	143.63466666667	0
bin	143.668	0
bin	143.70133333333	0
bin	143.73466666667	0
bin	143.768	0
bin	143.80133333333	0
bin	143.83466666667	0
bin	143.868	1
bin	143.90133333333	0
bin	143.93466666667	0
bin	143.968	0
bin	144.00133333333	0
bin	144.03466666667	0
bin	144.068	0
bin	144.10133333333	0
bin	144.13466666667	0
bin	144.168	0
bin	144.20133333333	0
bin	144.23466666667	0
bin	144.268	0
bin	144.30133333333	0
bin	144.33466666667	0
bin	144.368	0
statistic RandomGeometricGraph.rgnv[58] 	arrivalPerc:histogram
field count 1
field mean 1
field stddev nan
field sum 1
field sqrsum 1
field min 1
field max 1
attr interpolationmode  none
attr source  count(arrival)
attr title  "arrival perc, histogram"
bin	-INF	0
bin	0	0
bin	1	1
bin	2	0
statistic RandomGeometricGraph.rgnv[59] 	arrivalTime:histogram
field count 1
field mean 168.888
field stddev nan
field sum 168.888
field sqrsum 28523.156544
field min 168.888
field max 168.888
attr interpolationmode  none
attr source  arrivalTime
attr title  "arrival time, histogram"
bin	-INF	0
bin	168.388	0
bin	168.42133333333	0
bin	168.45466666667	0
bin	168.488	0
bin	168.52133333333	0
bin	168.55466666667	0
bin	168.588	0
bin	168.62133333333	0
bin	168.65466666667	0
bin	168.688	0
bin	168.72133333333	0
bin	168.75466666667	0
bin	168.788	0
bin	168.82133333333	0
bin	168.85466666667	0
bin	168.888	1
bin	168.92133333333	0
bin	168.95466666667	0
bin	168.988	0
bin	169.02133333333	0
bin	169.05466666667	0
bin	169.088	0
bin	169.12133333333	0
bin	169.15466666667	0
bin	169.188	0
bin	169.22133333333	0
bin	169.25466666667	0
bin	169.288	0
bin	169.32133333333	0
bin	169.35466666667	0
bin	169.388	0
statistic RandomGeometricGraph.rgnv[59] 	arrivalPerc:histogram
field count 1
field mean 1
field stddev nan
field sum 1
field sqrsum 1
field min 1
field max 1
attr interpolationmode  none
attr source  count(arrival)
attr title  "arrival perc, histogram"
bin	-INF	0
bin	0	0
bin	1	1
bin	2	0
statistic RandomGeometricGraph.rgnv[60] 	arrivalTime:histogram
field count 1
field mean 54.944
field stddev nan
field sum 54.944
field sqrsum 3018.843136
field min 54.944
field max 54.944
attr interpolationmode  none
attr source  arrivalTime
attr title  "arrival time, histogram"
bin	-INF	0
bin	54.444	0
bin	54.477333333333	0
bin	54.510666666667	0
bin	54.544	0
bin	54.577333333333	0
bin	54.610666666667	0
bin	54.644	0
bin	54.677333333333	0
bin	54.710666666667	0
bin	54.744	0
bin	54.777333333333	0
bin	54.810666666667	0
bin	54.844	0
bin	54.877333333333	0
bin	54.910666666667	0
bin	54.944	1
bin	54.977333333333	0
bin	55.010666666667	0
bin	55.044	0
bin	55.077333333333	0
bin	55.110666666667	0
bin	55.144	0
bin	55.177333333333	0
bin	55.210666666667	0
bin	55.244	0
bin	55.277333333333	0
bin	55.310666666667	0
bin	55.344	0
bin	55.377333333333	0
bin	55.410666666667	0
bin	55.444	0
statistic RandomGeometricGraph.rgnv[60] 	arrivalPerc:histogram
field count 1
field mean 1
field stddev nan
field sum 1
field sqrsum 1
field min 1
field max 1
attr interpolationmode  none
attr source  count(arrival)
attr title  "arrival perc, histogram"
bin	-INF	0
bin	0	0
bin	1	1
bin	2	0
statistic RandomGeometricGraph.rgnv[61] 	arrivalTime:histogram
field count 1
field mean 131.657
field stddev nan
field sum 131.657
field sqrsum 17333.565649
field min 131.657
field max 131.657
attr interpolationmode  none
attr source  arrivalTime
attr title  "arrival time, histogram"
bin	-INF	0
bin	131.157	0
bin	131.19033333333	0
bin	131.22366666667	0
bin	131.257	0
bin	131.29033333333	0
bin	131.32366666667	0
bin	131.357	0
bin	131.39033333333	0
bin	131.42366666667	0
bin	131.457	0
bin	131.49033333333	0
bin	131.52366666667	0
bin	131.557	0
bin	131.59033333333	0
bin	131.62366666667	0
bin	131.657	1
bin	131.69033333333	0
bin	131.72366666667	0
bin	131.757	0
bin	131.79033333333	0
bin	131.82366666667	0
bin	131.857	0
bin	131.89033333333	0
bin	131.92366666667	0
bin	131.957	0
bin	131.99033333333	0
bin	132.02366666667	0
bin	132.057	0
bin	132.09033333333	0
bin	132.12366666667	0
bin	132.157	0
statistic RandomGeometricGraph.rgnv[61] 	arrivalPerc:histogram
field count 1
field mean 1
field stddev nan
field sum 1
field sqrsum 1
field min 1
field max 1
attr interpolationmode  none
attr source  count(arrival)
attr title  "arrival perc, histogram"
bin	-INF	0
bin	0	0
bin	1	1
bin	2	0
statistic RandomGeometricGraph.rgnv[62] 	arrivalTime:histogram
field count 1
field mean 191.099
field stddev nan
field sum 191.099
field sqrsum 36518.827801
field min 191.099
field max 191.099
attr interpolationmode  none
attr source  arrivalTime
attr title  "arrival time, histogram"
bin	-INF	0
bin	190.599	0
bin	190.63233333333	0
bin	190.66566666667	0
bin	190.699	0
bin	190.73233333333	0
bin	190.76566666667	0
bin	190.799	0
bin	190.83233333333	0
bin	190.86566666667	0
bin	190.899	0
bin	190.93233333333	0
bin	190.96566666667	0
bin	190.999	0
bin	191.03233333333	0
bin	191.06566666667	0
bin	191.099	1
bin	191.13233333333	0
bin	191.16566666667	0
bin	191.199	0
bin	191.23233333333	0
bin	191.26566666667	0
bin	191.299	0
bin	191.33233333333	0
bin	191.36566666667	0
bin	191.399	0
bin	191.43233333333	0
bin	191.46566666667	0
bin	191.499	0
bin	191.53233333333	0
bin	191.56566666667	0
bin	191.599	0
statistic RandomGeometricGraph.rgnv[62] 	arrivalPerc:histogram
field count 1
field mean 1
field stddev nan
field sum 1
field sqrsum 1
field min 1
field max 1
attr interpolationmode  none
attr source  count(arrival)
attr title  "arrival perc, histogram"
bin	-INF	0
bin	0	0
bin	1	1
bin	2	0
statistic RandomGeometricGraph.rgnv[63] 	arrivalTime:histogram
field count 1
field mean 216.119
field stddev nan
field sum 216.119
field sqrsum 46707.422161
field min 216.119
field max 216.119
attr interpolationmode  none
attr source  arrivalTime
attr title  "arrival time, histogram"
bin	-INF	0
bin	215.619	0
bin	215.65233333333	0
bin	215.68566666667	0
bin	215.719	0
bin	215.75233333333	0
bin	215.78566666667	0
bin	215.819	0
bin	215.85233333333	0
bin	215.88566666667	0
bin	215.919	0
bin	215.95233333333	0
bin	215.98566666667	0
bin	216.019	0
bin	216.05233333333	0
bin	216.08566666667	0
bin	216.119	1
bin	216.15233333333	0
bin	216.18566666667	0
bin	216.219	0
bin	216.25233333333	0
bin	216.28566666667	0
bin	216.319	0
bin	216.35233333333	0
bin	216.38566666667	0
bin	216.419	0
bin	216.45233333333	0
bin	216.48566666667	0
bin	216.519	0
bin	216.55233333333	0
bin	216.58566666667	0
bin	216.619	0
statistic RandomGeometricGraph.rgnv[63] 	arrivalPerc:histogram
field count 1
field mean 1
field stddev nan
field sum 1
field sqrsum 1
field min 1
field max 1
attr interpolationmode  none
attr source  count(arrival)
attr title  "arrival perc, histogram"
bin	-INF	0
bin	0	0
bin	1	1
bin	2	0
statistic RandomGeometricGraph.rgnv[64] 	arrivalTime:histogram
field count 1
field mean 270.561
field stddev nan
field sum 270.561
field sqrsum 73203.254721
field min 270.561
field max 270.561
attr interpolationmode  none
attr source  arrivalTime
attr title  "arrival time, histogram"
bin	-INF	0
bin	270.061	0
bin	270.09433333333	0
bin	270.12766666667	0
bin	270.161	0
bin	270.19433333333	0
bin	270.22766666667	0
bin	270.261	0
bin	270.29433333333	0
bin	270.32766666667	0
bin	270.361	0
bin	270.39433333333	0
bin	270.42766666667	0
bin	270.461	0
bin	270.49433333333	0
bin	270.52766666667	0
bin	270.561	1
bin	270.59433333333	0
bin	270.62766666667	0
bin	270.661	0
bin	270.69433333333	0
bin	270.72766666667	0
bin	270.761	0
bin	270.79433333333	0
bin	270.82766666667	0
bin	270.861	0
bin	270.89433333333	0
bin	270.92766666667	0
bin	270.961	0
bin	270.99433333333	0
bin	271.02766666667	0
bin	271.061	0
statistic RandomGeometricGraph.rgnv[64] 	arrivalPerc:histogram
field count 1
field mean 1
field stddev nan
field sum 1
field sqrsum 1
field min 1
field max 1
attr interpolationmode  none
attr source  count(arrival)
attr title  "arrival perc, histogram"
bin	-INF	0
bin	0	0
bin	1	1
bin	2	0
statistic RandomGeometricGraph.rgnv[65] 	arrivalTime:histogram
field count 1
field mean 238.34
field stddev nan
field sum 238.34
field sqrsum 56805.9556
field min 238.34
field max 238.34
attr interpolationmode  none
attr source  arrivalTime
attr title  "arrival time, histogram"
bin	-INF	0
bin	237.84	0
bin	237.87333333333	0
bin	237.90666666667	0
bin	237.94	0
bin	237.97333333333	0
bin	238.00666666667	0
bin	238.04	0
bin	238.07333333333	0
bin	238.10666666667	0
bin	238.14	0
bin	238.17333333333	0
bin	238.20666666667	0
bin	238.24	0
bin	238.27333333333	0
bin	238.30666666667	0
bin	238.34	1
bin	238.37333333333	0
bin	238.40666666667	0
bin	238.44	0
bin	238.47333333333	0
bin	238.50666666667	0
bin	238.54	0
bin	238.57333333333	0
bin	238.60666666667	0
bin	238.64	0
bin	238.67333333333	0
bin	238.70666666667	0
bin	238.74	0
bin	238.77333333333	0
bin	238.80666666667	0
bin	238.84	0
statistic RandomGeometricGraph.rgnv[65] 	arrivalPerc:histogram
field count 1
field mean 1
field stddev nan
field sum 1
field sqrsum 1
field min 1
field max 1
attr interpolationmode  none
attr source  count(arrival)
attr title  "arrival perc, histogram"
bin	-INF	0
bin	0	0
bin	1	1
bin	2	0
statistic RandomGeometricGraph.rgnv[66] 	arrivalTime:histogram
field count 1
field mean 111.637
field stddev nan
field sum 111.637
field sqrsum 12462.819769
field min 111.637
field max 111.637
attr interpolationmode  none
attr source  arrivalTime
attr title  "arrival time, histogram"
bin	-INF	0
bin	111.137	0
bin	111.17033333333	0
bin	111.20366666667	0
bin	111.237	0
bin	111.27033333333	0
bin	111.30366666667	0
bin	111.337	0
bin	111.37033333333	0
bin	111.40366666667	0
bin	111.437	0
bin	111.47033333333	0
bin	111.50366666667	0
bin	111.537	0
bin	111.57033333333	0
bin	111.60366666667	0
bin	111.637	1
bin	111.67033333333	0
bin	111.70366666667	0
bin	111.737	0
bin	111.77033333333	0
[...]
bin	-INF	0
bin	0	0
bin	1	1
bin	2	0
statistic RandomGeometricGraph.rgnv[183] 	arrivalTime:histogram
field count 1
field mean 84.406
field stddev nan
field sum 84.406
field sqrsum 7124.372836
field min 84.406
field max 84.406
attr interpolationmode  none
attr source  arrivalTime
attr title  "arrival time, histogram"
bin	-INF	0
bin	83.906	0
bin	83.939333333333	0
bin	83.972666666667	0
bin	84.006	0
bin	84.039333333333	0
bin	84.072666666667	0
bin	84.106	0
bin	84.139333333333	0
bin	84.172666666667	0
bin	84.206	0
bin	84.239333333333	0
bin	84.272666666667	0
bin	84.306	0
bin	84.339333333333	0
bin	84.372666666667	0
bin	84.406	1
bin	84.439333333333	0
bin	84.472666666667	0
bin	84.506	0
bin	84.539333333333	0
bin	84.572666666667	0
bin	84.606	0
bin	84.639333333333	0
bin	84.672666666667	0
bin	84.706	0
bin	84.739333333333	0
bin	84.772666666667	0
bin	84.806	0
bin	84.839333333333	0
bin	84.872666666667	0
bin	84.906	0
statistic RandomGeometricGraph.rgnv[183] 	arrivalPerc:histogram
field count 1
field mean 1
field stddev nan
field sum 1
field sqrsum 1
field min 1
field max 1
attr interpolationmode  none
attr source  count(arrival)
attr title  "arrival perc, histogram"
bin	-INF	0
bin	0	0
bin	1	1
bin	2	0
statistic RandomGeometricGraph.rgnv[184] 	arrivalTime:histogram
field count 1
field mean 163.878
field stddev nan
field sum 163.878
field sqrsum 26855.998884
field min 163.878
field max 163.878
attr interpolationmode  none
attr source  arrivalTime
attr title  "arrival time, histogram"
bin	-INF	0
bin	163.378	0
bin	163.41133333333	0
bin	163.44466666667	0
bin	163.478	0
bin	163.51133333333	0
bin	163.54466666667	0
bin	163.578	0
bin	163.61133333333	0
bin	163.64466666667	0
bin	163.678	0
bin	163.71133333333	0
bin	163.74466666667	0
bin	163.778	0
bin	163.81133333333	0
bin	163.84466666667	0
bin	163.878	1
bin	163.91133333333	0
bin	163.94466666667	0
bin	163.978	0
bin	164.01133333333	0
bin	164.04466666667	0
bin	164.078	0
bin	164.11133333333	0
bin	164.14466666667	0
bin	164.178	0
bin	164.21133333333	0
bin	164.24466666667	0
bin	164.278	0
bin	164.31133333333	0
bin	164.34466666667	0
bin	164.378	0
statistic RandomGeometricGraph.rgnv[184] 	arrivalPerc:histogram
field count 1
field mean 1
field stddev nan
field sum 1
field sqrsum 1
field min 1
field max 1
attr interpolationmode  none
attr source  count(arrival)
attr title  "arrival perc, histogram"
bin	-INF	0
bin	0	0
bin	1	1
bin	2	0
statistic RandomGeometricGraph.rgnv[185] 	arrivalTime:histogram
field count 1
field mean 191.099
field stddev nan
field sum 191.099
field sqrsum 36518.827801
field min 191.099
field max 191.099
attr interpolationmode  none
attr source  arrivalTime
attr title  "arrival time, histogram"
bin	-INF	0
bin	190.599	0
bin	190.63233333333	0
bin	190.66566666667	0
bin	190.699	0
bin	190.73233333333	0
bin	190.76566666667	0
bin	190.799	0
bin	190.83233333333	0
bin	190.86566666667	0
bin	190.899	0
bin	190.93233333333	0
bin	190.96566666667	0
bin	190.999	0
bin	191.03233333333	0
bin	191.06566666667	0
bin	191.099	1
bin	191.13233333333	0
bin	191.16566666667	0
bin	191.199	0
bin	191.23233333333	0
bin	191.26566666667	0
bin	191.299	0
bin	191.33233333333	0
bin	191.36566666667	0
bin	191.399	0
bin	191.43233333333	0
bin	191.46566666667	0
bin	191.499	0
bin	191.53233333333	0
bin	191.56566666667	0
bin	191.599	0
statistic RandomGeometricGraph.rgnv[185] 	arrivalPerc:histogram
field count 1
field mean 1
field stddev nan
field sum 1
field sqrsum 1
field min 1
field max 1
attr interpolationmode  none
attr source  count(arrival)
attr title  "arrival perc, histogram"
bin	-INF	0
bin	0	0
bin	1	1
bin	2	0
statistic RandomGeometricGraph.rgnv[186] 	arrivalTime:histogram
field count 1
field mean 248.34
field stddev nan
field sum 248.34
field sqrsum 61672.7556
field min 248.34
field max 248.34
attr interpolationmode  none
attr source  arrivalTime
attr title  "arrival time, histogram"
bin	-INF	0
bin	247.84	0
bin	247.87333333333	0
bin	247.90666666667	0
bin	247.94	0
bin	247.97333333333	0
bin	248.00666666667	0
bin	248.04	0
bin	248.07333333333	0
bin	248.10666666667	0
bin	248.14	0
bin	248.17333333333	0
bin	248.20666666667	0
bin	248.24	0
bin	248.27333333333	0
bin	248.30666666667	0
bin	248.34	1
bin	248.37333333333	0
bin	248.40666666667	0
bin	248.44	0
bin	248.47333333333	0
bin	248.50666666667	0
bin	248.54	0
bin	248.57333333333	0
bin	248.60666666667	0
bin	248.64	0
bin	248.67333333333	0
bin	248.70666666667	0
bin	248.74	0
bin	248.77333333333	0
bin	248.80666666667	0
bin	248.84	0
statistic RandomGeometricGraph.rgnv[186] 	arrivalPerc:histogram
field count 1
field mean 1
field stddev nan
field sum 1
field sqrsum 1
field min 1
field max 1
attr interpolationmode  none
attr source  count(arrival)
attr title  "arrival perc, histogram"
bin	-INF	0
bin	0	0
bin	1	1
bin	2	0
statistic RandomGeometricGraph.rgnv[187] 	arrivalTime:histogram
field count 1
field mean 126.657
field stddev nan
field sum 126.657
field sqrsum 16041.995649
field min 126.657
field max 126.657
attr interpolationmode  none
attr source  arrivalTime
attr title  "arrival time, histogram"
bin	-INF	0
bin	126.157	0
bin	126.19033333333	0
bin	126.22366666667	0
bin	126.257	0
bin	126.29033333333	0
bin	126.32366666667	0
bin	126.357	0
bin	126.39033333333	0
bin	126.42366666667	0
bin	126.457	0
bin	126.49033333333	0
bin	126.52366666667	0
bin	126.557	0
bin	126.59033333333	0
bin	126.62366666667	0
bin	126.657	1
bin	126.69033333333	0
bin	126.72366666667	0
bin	126.757	0
bin	126.79033333333	0
bin	126.82366666667	0
bin	126.857	0
bin	126.89033333333	0
bin	126.92366666667	0
bin	126.957	0
bin	126.99033333333	0
bin	127.02366666667	0
bin	127.057	0
bin	127.09033333333	0
bin	127.12366666667	0
bin	127.157	0
statistic RandomGeometricGraph.rgnv[187] 	arrivalPerc:histogram
field count 1
field mean 1
field stddev nan
field sum 1
field sqrsum 1
field min 1
field max 1
attr interpolationmode  none
attr source  count(arrival)
attr title  "arrival perc, histogram"
bin	-INF	0
bin	0	0
bin	1	1
bin	2	0
statistic RandomGeometricGraph.rgnv[188] 	arrivalTime:histogram
field count 1
field mean 148.868
field stddev nan
field sum 148.868
field sqrsum 22161.681424
field min 148.868
field max 148.868
attr interpolationmode  none
attr source  arrivalTime
attr title  "arrival time, histogram"
bin	-INF	0
bin	148.368	0
bin	148.40133333333	0
bin	148.43466666667	0
bin	148.468	0
bin	148.50133333333	0
bin	148.53466666667	0
bin	148.568	0
bin	148.60133333333	0
bin	148.63466666667	0
bin	148.668	0
bin	148.70133333333	0
bin	148.73466666667	0
bin	148.768	0
bin	148.80133333333	0
bin	148.83466666667	0
bin	148.868	1
bin	148.90133333333	0
bin	148.93466666667	0
bin	148.968	0
bin	149.00133333333	0
bin	149.03466666667	0
bin	149.068	0
bin	149.10133333333	0
bin	149.13466666667	0
bin	149.168	0
bin	149.20133333333	0
bin	149.23466666667	0
bin	149.268	0
bin	149.30133333333	0
bin	149.33466666667	0
bin	149.368	0
statistic RandomGeometricGraph.rgnv[188] 	arrivalPerc:histogram
field count 1
field mean 1
field stddev nan
field sum 1
field sqrsum 1
field min 1
field max 1
attr interpolationmode  none
attr source  count(arrival)
attr title  "arrival perc, histogram"
bin	-INF	0
bin	0	0
bin	1	1
bin	2	0
statistic RandomGeometricGraph.rgnv[189] 	arrivalTime:histogram
field count 1
field mean 67.175
field stddev nan
field sum 67.175
field sqrsum 4512.480625
field min 67.175
field max 67.175
attr interpolationmode  none
attr source  arrivalTime
attr title  "arrival time, histogram"
bin	-INF	0
bin	66.675	0
bin	66.708333333333	0
bin	66.741666666667	0
bin	66.775	0
bin	66.808333333333	0
bin	66.841666666667	0
bin	66.875	0
bin	66.908333333333	0
bin	66.941666666667	0
bin	66.975	0
bin	67.008333333333	0
bin	67.041666666667	0
bin	67.075	0
bin	67.108333333333	0
bin	67.141666666667	0
bin	67.175	1
bin	67.208333333333	0
bin	67.241666666667	0
bin	67.275	0
bin	67.308333333333	0
bin	67.341666666667	0
bin	67.375	0
bin	67.408333333333	0
bin	67.441666666667	0
bin	67.475	0
bin	67.508333333333	0
bin	67.541666666667	0
bin	67.575	0
bin	67.608333333333	0
bin	67.641666666667	0
bin	67.675	0
statistic RandomGeometricGraph.rgnv[189] 	arrivalPerc:histogram
field count 1
field mean 1
field stddev nan
field sum 1
field sqrsum 1
field min 1
field max 1
attr interpolationmode  none
attr source  count(arrival)
attr title  "arrival perc, histogram"
bin	-INF	0
bin	0	0
bin	1	1
bin	2	0
statistic RandomGeometricGraph.rgnv[190] 	arrivalTime:histogram
field count 1
field mean 206.109
field stddev nan
field sum 206.109
field sqrsum 42480.919881
field min 206.109
field max 206.109
attr interpolationmode  none
attr source  arrivalTime
attr title  "arrival time, histogram"
bin	-INF	0
bin	205.609	0
bin	205.64233333333	0
bin	205.67566666667	0
bin	205.709	0
bin	205.74233333333	0
bin	205.77566666667	0
bin	205.809	0
bin	205.84233333333	0
bin	205.87566666667	0
bin	205.909	0
bin	205.94233333333	0
bin	205.97566666667	0
bin	206.009	0
bin	206.04233333333	0
bin	206.07566666667	0
bin	206.109	1
bin	206.14233333333	0
bin	206.17566666667	0
bin	206.209	0
bin	206.24233333333	0
bin	206.27566666667	0
bin	206.309	0
bin	206.34233333333	0
bin	206.37566666667	0
bin	206.409	0
bin	206.44233333333	0
bin	206.47566666667	0
bin	206.509	0
bin	206.54233333333	0
bin	206.57566666667	0
bin	206.609	0
statistic RandomGeometricGraph.rgnv[190] 	arrivalPerc:histogram
field count 1
field mean 1
field stddev nan
field sum 1
field sqrsum 1
field min 1
field max 1
attr interpolationmode  none
attr source  count(arrival)
attr title  "arrival perc, histogram"
bin	-INF	0
bin	0	0
bin	1	1
bin	2	0
statistic RandomGeometricGraph.rgnv[191] 	arrivalTime:histogram
field count 1
field mean 201.109
field stddev nan
field sum 201.109
field sqrsum 40444.829881
field min 201.109
field max 201.109
attr interpolationmode  none
attr source  arrivalTime
attr title  "arrival time, histogram"
bin	-INF	0
bin	200.609	0
bin	200.64233333333	0
bin	200.67566666667	0
bin	200.709	0
bin	200.74233333333	0
bin	200.77566666667	0
bin	200.809	0
bin	200.84233333333	0
bin	200.87566666667	0
bin	200.909	0
bin	200.94233333333	0
bin	200.97566666667	0
bin	201.009	0
bin	201.04233333333	0
bin	201.07566666667	0
bin	201.109	1
bin	201.14233333333	0
bin	201.17566666667	0
bin	201.209	0
bin	201.24233333333	0
bin	201.27566666667	0
bin	201.309	0
bin	201.34233333333	0
bin	201.37566666667	0
bin	201.409	0
bin	201.44233333333	0
bin	201.47566666667	0
bin	201.509	0
bin	201.54233333333	0
bin	201.57566666667	0
bin	201.609	0
statistic RandomGeometricGraph.rgnv[191] 	arrivalPerc:histogram
field count 1
field mean 1
field stddev nan
field sum 1
field sqrsum 1
field min 1
field max 1
attr interpolationmode  none
attr source  count(arrival)
attr title  "arrival perc, histogram"
bin	-INF	0
bin	0	0
bin	1	1
bin	2	0
statistic RandomGeometricGraph.rgnv[192] 	arrivalTime:histogram
field count 1
field mean 111.647
field stddev nan
field sum 111.647
field sqrsum 12465.052609
field min 111.647
field max 111.647
attr interpolationmode  none
attr source  arrivalTime
attr title  "arrival time, histogram"
bin	-INF	0
bin	111.147	0
bin	111.18033333333	0
bin	111.21366666667	0
bin	111.247	0
bin	111.28033333333	0
bin	111.31366666667	0
bin	111.347	0
bin	111.38033333333	0
bin	111.41366666667	0
bin	111.447	0
bin	111.48033333333	0
bin	111.51366666667	0
bin	111.547	0
bin	111.58033333333	0
bin	111.61366666667	0
bin	111.647	1
bin	111.68033333333	0
bin	111.71366666667	0
bin	111.747	0
bin	111.78033333333	0
bin	111.81366666667	0
bin	111.847	0
bin	111.88033333333	0
bin	111.91366666667	0
bin	111.947	0
bin	111.98033333333	0
bin	112.01366666667	0
bin	112.047	0
bin	112.08033333333	0
bin	112.11366666667	0
bin	112.147	0
statistic RandomGeometricGraph.rgnv[192] 	arrivalPerc:histogram
field count 1
field mean 1
field stddev nan
field sum 1
field sqrsum 1
field min 1
field max 1
attr interpolationmode  none
attr source  count(arrival)
attr title  "arrival perc, histogram"
bin	-INF	0
bin	0	0
bin	1	1
bin	2	0
statistic RandomGeometricGraph.rgnv[193] 	arrivalTime:histogram
field count 1
field mean 62.165
field stddev nan
field sum 62.165
field sqrsum 3864.487225
field min 62.165
field max 62.165
attr interpolationmode  none
attr source  arrivalTime
attr title  "arrival time, histogram"
bin	-INF	0
bin	61.665	0
bin	61.698333333333	0
bin	61.731666666667	0
bin	61.765	0
bin	61.798333333333	0
bin	61.831666666667	0
bin	61.865	0
bin	61.898333333333	0
bin	61.931666666667	0
bin	61.965	0
bin	61.998333333333	0
bin	62.031666666667	0
bin	62.065	0
bin	62.098333333333	0
bin	62.131666666667	0
bin	62.165	1
bin	62.198333333333	0
bin	62.231666666667	0
bin	62.265	0
bin	62.298333333333	0
bin	62.331666666667	0
bin	62.365	0
bin	62.398333333333	0
bin	62.431666666667	0
bin	62.465	0
bin	62.498333333333	0
bin	62.531666666667	0
bin	62.565	0
bin	62.598333333333	0
bin	62.631666666667	0
bin	62.665	0
statistic RandomGeometricGraph.rgnv[193] 	arrivalPerc:histogram
field count 1
field mean 1
field stddev nan
field sum 1
field sqrsum 1
field min 1
field max 1
attr interpolationmode  none
attr source  count(arrival)
attr title  "arrival perc, histogram"
bin	-INF	0
bin	0	0
bin	1	1
bin	2	0
statistic RandomGeometricGraph.rgnv[194] 	arrivalTime:histogram
field count 1
field mean 211.119
field stddev nan
field sum 211.119
field sqrsum 44571.232161
field min 211.119
field max 211.119
attr interpolationmode  none
attr source  arrivalTime
attr title  "arrival time, histogram"
bin	-INF	0
bin	210.619	0
bin	210.65233333333	0
bin	210.68566666667	0
bin	210.719	0
bin	210.75233333333	0
bin	210.78566666667	0
bin	210.819	0
bin	210.85233333333	0
bin	210.88566666667	0
bin	210.919	0
bin	210.95233333333	0
bin	210.98566666667	0
bin	211.019	0
bin	211.05233333333	0
bin	211.08566666667	0
bin	211.119	1
bin	211.15233333333	0
bin	211.18566666667	0
bin	211.219	0
bin	211.25233333333	0
bin	211.28566666667	0
bin	211.319	0
bin	211.35233333333	0
bin	211.38566666667	0
bin	211.419	0
bin	211.45233333333	0
bin	211.48566666667	0
bin	211.519	0
bin	211.55233333333	0
bin	211.58566666667	0
bin	211.619	0
statistic RandomGeometricGraph.rgnv[194] 	arrivalPerc:histogram
field count 1
field mean 1
field stddev nan
field sum 1
field sqrsum 1
field min 1
field max 1
attr interpolationmode  none
attr source  count(arrival)
attr title  "arrival perc, histogram"
bin	-INF	0
bin	0	0
bin	1	1
bin	2	0
statistic RandomGeometricGraph.rgnv[195] 	arrivalTime:histogram
field count 1
field mean 84.406
field stddev nan
field sum 84.406
field sqrsum 7124.372836
field min 84.406
field max 84.406
attr interpolationmode  none
attr source  arrivalTime
attr title  "arrival time, histogram"
bin	-INF	0
bin	83.906	0
bin	83.939333333333	0
bin	83.972666666667	0
bin	84.006	0
bin	84.039333333333	0
bin	84.072666666667	0
bin	84.106	0
bin	84.139333333333	0
bin	84.172666666667	0
bin	84.206	0
bin	84.239333333333	0
bin	84.272666666667	0
bin	84.306	0
bin	84.339333333333	0
bin	84.372666666667	0
bin	84.406	1
bin	84.439333333333	0
bin	84.472666666667	0
bin	84.506	0
bin	84.539333333333	0
bin	84.572666666667	0
bin	84.606	0
bin	84.639333333333	0
bin	84.672666666667	0
bin	84.706	0
bin	84.739333333333	0
bin	84.772666666667	0
bin	84.806	0
bin	84.839333333333	0
bin	84.872666666667	0
bin	84.906	0
statistic RandomGeometricGraph.rgnv[195] 	arrivalPerc:histogram
field count 1
field mean 1
field stddev nan
field sum 1
field sqrsum 1
field min 1
field max 1
attr interpolationmode  none
attr source  count(arrival)
attr title  "arrival perc, histogram"
bin	-INF	0
bin	0	0
bin	1	1
bin	2	0
statistic RandomGeometricGraph.rgnv[196] 	arrivalTime:histogram
field count 1
field mean 201.109
field stddev nan
field sum 201.109
field sqrsum 40444.829881
field min 201.109
field max 201.109
attr interpolationmode  none
attr source  arrivalTime
attr title  "arrival time, histogram"
bin	-INF	0
bin	200.609	0
bin	200.64233333333	0
bin	200.67566666667	0
bin	200.709	0
bin	200.74233333333	0
bin	200.77566666667	0
bin	200.809	0
bin	200.84233333333	0
bin	200.87566666667	0
bin	200.909	0
bin	200.94233333333	0
bin	200.97566666667	0
bin	201.009	0
bin	201.04233333333	0
bin	201.07566666667	0
bin	201.109	1
bin	201.14233333333	0
bin	201.17566666667	0
bin	201.209	0
bin	201.24233333333	0
bin	201.27566666667	0
bin	201.309	0
bin	201.34233333333	0
bin	201.37566666667	0
bin	201.409	0
bin	201.44233333333	0
bin	201.47566666667	0
bin	201.509	0
bin	201.54233333333	0
bin	201.57566666667	0
bin	201.609	0
statistic RandomGeometricGraph.rgnv[196] 	arrivalPerc:histogram
field count 1
field mean 1
field stddev nan
field sum 1
field sqrsum 1
field min 1
field max 1
attr interpolationmode  none
attr source  count(arrival)
attr title  "arrival perc, histogram"
bin	-INF	0
bin	0	0
bin	1	1
bin	2	0
statistic RandomGeometricGraph.rgnv[197] 	arrivalTime:histogram
field count 1
field mean 238.34
field stddev nan
field sum 238.34
field sqrsum 56805.9556
field min 238.34
field max 238.34
attr interpolationmode  none
attr source  arrivalTime
attr title  "arrival time, histogram"
bin	-INF	0
bin	237.84	0
bin	237.87333333333	0
bin	237.90666666667	0
bin	237.94	0
bin	237.97333333333	0
bin	238.00666666667	0
bin	238.04	0
bin	238.07333333333	0
bin	238.10666666667	0
bin	238.14	0
bin	238.17333333333	0
bin	238.20666666667	0
bin	238.24	0
bin	238.27333333333	0
bin	238.30666666667	0
bin	238.34	1
bin	238.37333333333	0
bin	238.40666666667	0
bin	238.44	0
bin	238.47333333333	0
bin	238.50666666667	0
bin	238.54	0
bin	238.57333333333	0
bin	238.60666666667	0
bin	238.64	0
bin	238.67333333333	0
bin	238.70666666667	0
bin	238.74	0
bin	238.77333333333	0
bin	238.80666666667	0
bin	238.84	0
statistic RandomGeometricGraph.rgnv[197] 	arrivalPerc:histogram
field count 1
field mean 1
field stddev nan
field sum 1
field sqrsum 1
field min 1
field max 1
attr interpolationmode  none
attr source  count(arrival)
attr title  "arrival perc, histogram"
bin	-INF	0
bin	0	0
bin	1	1
bin	2	0
statistic RandomGeometricGraph.rgnv[198] 	arrivalTime:histogram
field count 1
field mean 221.119
field stddev nan
field sum 221.119
field sqrsum 48893.612161
field min 221.119
field max 221.119
attr interpolationmode  none
attr source  arrivalTime
attr title  "arrival time, histogram"
bin	-INF	0
bin	220.619	0
bin	220.65233333333	0
bin	220.68566666667	0
bin	220.719	0
bin	220.75233333333	0
bin	220.78566666667	0
bin	220.819	0
bin	220.85233333333	0
bin	220.88566666667	0
bin	220.919	0
bin	220.95233333333	0
bin	220.98566666667	0
bin	221.019	0
bin	221.05233333333	0
bin	221.08566666667	0
bin	221.119	1
bin	221.15233333333	0
bin	221.18566666667	0
bin	221.219	0
bin	221.25233333333	0
bin	221.28566666667	0
bin	221.319	0
bin	221.35233333333	0
bin	221.38566666667	0
bin	221.419	0
bin	221.45233333333	0
bin	221.48566666667	0
bin	221.519	0
bin	221.55233333333	0
bin	221.58566666667	0
bin	221.619	0
statistic RandomGeometricGraph.rgnv[198] 	arrivalPerc:histogram
field count 1
field mean 1
field stddev nan
field sum 1
field sqrsum 1
field min 1
field max 1
attr interpolationmode  none
attr source  count(arrival)
attr title  "arrival perc, histogram"
bin	-INF	0
bin	0	0
bin	1	1
bin	2	0
statistic RandomGeometricGraph.rgnv[199] 	arrivalTime:histogram
field count 1
field mean 25.462
field stddev nan
field sum 25.462
field sqrsum 648.313444
field min 25.462
field max 25.462
attr interpolationmode  none
attr source  arrivalTime
attr title  "arrival time, histogram"
bin	-INF	0
bin	24.962	0
bin	24.995333333333	0
bin	25.028666666667	0
bin	25.062	0
bin	25.095333333333	0
bin	25.128666666667	0
bin	25.162	0
bin	25.195333333333	0
bin	25.228666666667	0
bin	25.262	0
bin	25.295333333333	0
bin	25.328666666667	0
bin	25.362	0
bin	25.395333333333	0
bin	25.428666666667	0
bin	25.462	1
bin	25.495333333333	0
bin	25.528666666667	0
bin	25.562	0
bin	25.595333333333	0
bin	25.628666666667	0
bin	25.662	0
bin	25.695333333333	0
bin	25.728666666667	0
bin	25.762	0
bin	25.795333333333	0
bin	25.828666666667	0
bin	25.862	0
bin	25.895333333333	0
bin	25.928666666667	0
bin	25.962	0
statistic RandomGeometricGraph.rgnv[199] 	arrivalPerc:histogram
field count 1
field mean 1
field stddev nan
field sum 1
field sqrsum 1
field min 1
field max 1
attr interpolationmode  none
attr source  count(arrival)
attr title  "arrival perc, histogram"
bin	-INF	0
bin	0	0
bin	1	1
bin	2	0
