version 2
run rgg200-0-20170110-16:27:43-9852
attr configname rgg200
attr datetime 20170110-16:27:43
attr experiment rgg200
attr inifile iniFile/D001/omnetpp_50D001.ini
attr iterationvars ""
attr iterationvars2 $repetition=0
attr measurement ""
attr network blegossipprj.net.randomgeometricgraph.RandomGeometricGraph
attr processid 9852
attr repetition 0
attr replication #0
attr resultdir ../../results/D001/r50D001
attr runnumber 0
attr seedset 0
param RandomGeometricGraph.netSize 200
param RandomGeometricGraph.radius 50
param RandomGeometricGraph.rgnv[*].areaLength 100
param RandomGeometricGraph.rgnv[*].areaWidth 100

statistic RandomGeometricGraph.sc 	arrivalPercentage
field count 200
field mean 1
field stddev 0
field sum 200
field sqrsum 200
field min 1
field max 1
attr type  int
bin	-INF	0
bin	0	0
bin	1	200
bin	2	0
statistic RandomGeometricGraph.sc 	arrivalTime
field count 200
field mean 121.83126
field stddev 43.983640244278
field sum 24366.252
field sqrsum 3353548.743856
field min 0
field max 220.561
bin	-INF	0
bin	-60.5495	0
bin	-52.476233333333	0
bin	-44.402966666667	0
bin	-36.3297	0
bin	-28.256433333333	0
bin	-20.183166666667	0
bin	-12.1099	0
bin	-4.0366333333333	1
bin	4.0366333333333	0
bin	12.1099	1
bin	20.183166666667	2
bin	28.256433333333	0
bin	36.3297	4
bin	44.402966666667	4
bin	52.476233333333	4
bin	60.5495	8
bin	68.622766666667	9
bin	76.696033333333	12
bin	84.7693	8
bin	92.842566666667	14
bin	100.91583333333	13
bin	108.9891	13
bin	117.06236666667	11
bin	125.13563333333	14
bin	133.2089	11
bin	141.28216666667	11
bin	149.35543333333	11
bin	157.4287	16
bin	165.50196666667	10
bin	173.57523333333	6
bin	181.6485	17
statistic RandomGeometricGraph.rgnv[0] 	arrivalTime:histogram
field count 1
field mean 138.868
field stddev nan
field sum 138.868
field sqrsum 19284.321424
field min 138.868
field max 138.868
attr interpolationmode  none
attr source  arrivalTime
attr title  "arrival time, histogram"
bin	-INF	0
bin	138.368	0
bin	138.40133333333	0
bin	138.43466666667	0
bin	138.468	0
bin	138.50133333333	0
bin	138.53466666667	0
bin	138.568	0
bin	138.60133333333	0
bin	138.63466666667	0
bin	138.668	0
bin	138.70133333333	0
bin	138.73466666667	0
bin	138.768	0
bin	138.80133333333	0
bin	138.83466666667	0
bin	138.868	1
bin	138.90133333333	0
bin	138.93466666667	0
bin	138.968	0
bin	139.00133333333	0
bin	139.03466666667	0
bin	139.068	0
bin	139.10133333333	0
bin	139.13466666667	0
bin	139.168	0
bin	139.20133333333	0
bin	139.23466666667	0
bin	139.268	0
bin	139.30133333333	0
bin	139.33466666667	0
bin	139.368	0
statistic RandomGeometricGraph.rgnv[0] 	arrivalPerc:histogram
field count 1
field mean 1
field stddev nan
field sum 1
field sqrsum 1
field min 1
field max 1
attr interpolationmode  none
attr source  count(arrival)
attr title  "arrival perc, histogram"
bin	-INF	0
bin	0	0
bin	1	1
bin	2	0
statistic RandomGeometricGraph.rgnv[1] 	arrivalTime:histogram
field count 1
field mean 198.33
field stddev nan
field sum 198.33
field sqrsum 39334.7889
field min 198.33
field max 198.33
attr interpolationmode  none
attr source  arrivalTime
attr title  "arrival time, histogram"
bin	-INF	0
bin	197.83	0
bin	197.86333333333	0
bin	197.89666666667	0
bin	197.93	0
bin	197.96333333333	0
bin	197.99666666667	0
bin	198.03	0
bin	198.06333333333	0
bin	198.09666666667	0
bin	198.13	0
bin	198.16333333333	0
bin	198.19666666667	0
bin	198.23	0
bin	198.26333333333	0
bin	198.29666666667	0
bin	198.33	1
bin	198.36333333333	0
bin	198.39666666667	0
bin	198.43	0
bin	198.46333333333	0
bin	198.49666666667	0
bin	198.53	0
bin	198.56333333333	0
bin	198.59666666667	0
bin	198.63	0
bin	198.66333333333	0
bin	198.69666666667	0
bin	198.73	0
bin	198.76333333333	0
bin	198.79666666667	0
bin	198.83	0
statistic RandomGeometricGraph.rgnv[1] 	arrivalPerc:histogram
field count 1
field mean 1
field stddev nan
field sum 1
field sqrsum 1
field min 1
field max 1
attr interpolationmode  none
attr source  count(arrival)
attr title  "arrival perc, histogram"
bin	-INF	0
bin	0	0
bin	1	1
bin	2	0
statistic RandomGeometricGraph.rgnv[2] 	arrivalTime:histogram
field count 1
field mean 146.667
field stddev nan
field sum 146.667
field sqrsum 21511.208889
field min 146.667
field max 146.667
attr interpolationmode  none
attr source  arrivalTime
attr title  "arrival time, histogram"
bin	-INF	0
bin	146.167	0
bin	146.20033333333	0
bin	146.23366666667	0
bin	146.267	0
bin	146.30033333333	0
bin	146.33366666667	0
bin	146.367	0
bin	146.40033333333	0
bin	146.43366666667	0
bin	146.467	0
bin	146.50033333333	0
bin	146.53366666667	0
bin	146.567	0
bin	146.60033333333	0
bin	146.63366666667	0
bin	146.667	1
bin	146.70033333333	0
bin	146.73366666667	0
bin	146.767	0
bin	146.80033333333	0
bin	146.83366666667	0
bin	146.867	0
bin	146.90033333333	0
bin	146.93366666667	0
bin	146.967	0
bin	147.00033333333	0
bin	147.03366666667	0
bin	147.067	0
bin	147.10033333333	0
bin	147.13366666667	0
bin	147.167	0
statistic RandomGeometricGraph.rgnv[2] 	arrivalPerc:histogram
field count 1
field mean 1
field stddev nan
field sum 1
field sqrsum 1
field min 1
field max 1
attr interpolationmode  none
attr source  count(arrival)
attr title  "arrival perc, histogram"
bin	-INF	0
bin	0	0
bin	1	1
bin	2	0
statistic RandomGeometricGraph.rgnv[3] 	arrivalTime:histogram
field count 1
field mean 123.32
field stddev nan
field sum 123.32
field sqrsum 15207.8224
field min 123.32
field max 123.32
attr interpolationmode  none
attr source  arrivalTime
attr title  "arrival time, histogram"
bin	-INF	0
bin	122.82	0
bin	122.85333333333	0
bin	122.88666666667	0
bin	122.92	0
bin	122.95333333333	0
bin	122.98666666667	0
bin	123.02	0
bin	123.05333333333	0
bin	123.08666666667	0
bin	123.12	0
bin	123.15333333333	0
bin	123.18666666667	0
bin	123.22	0
bin	123.25333333333	0
bin	123.28666666667	0
bin	123.32	1
bin	123.35333333333	0
bin	123.38666666667	0
bin	123.42	0
bin	123.45333333333	0
bin	123.48666666667	0
bin	123.52	0
bin	123.55333333333	0
bin	123.58666666667	0
bin	123.62	0
bin	123.65333333333	0
bin	123.68666666667	0
bin	123.72	0
bin	123.75333333333	0
bin	123.78666666667	0
bin	123.82	0
statistic RandomGeometricGraph.rgnv[3] 	arrivalPerc:histogram
field count 1
field mean 1
field stddev nan
field sum 1
field sqrsum 1
field min 1
field max 1
attr interpolationmode  none
attr source  count(arrival)
attr title  "arrival perc, histogram"
bin	-INF	0
bin	0	0
bin	1	1
bin	2	0
statistic RandomGeometricGraph.rgnv[4] 	arrivalTime:histogram
field count 1
field mean 98.848
field stddev nan
field sum 98.848
field sqrsum 9770.927104
field min 98.848
field max 98.848
attr interpolationmode  none
attr source  arrivalTime
attr title  "arrival time, histogram"
bin	-INF	0
bin	98.348	0
bin	98.381333333333	0
bin	98.414666666667	0
bin	98.448	0
bin	98.481333333333	0
bin	98.514666666667	0
bin	98.548	0
bin	98.581333333333	0
bin	98.614666666667	0
bin	98.648	0
bin	98.681333333333	0
bin	98.714666666667	0
bin	98.748	0
bin	98.781333333333	0
bin	98.814666666667	0
bin	98.848	1
bin	98.881333333333	0
bin	98.914666666667	0
bin	98.948	0
bin	98.981333333333	0
bin	99.014666666667	0
bin	99.048	0
bin	99.081333333333	0
bin	99.114666666667	0
bin	99.148	0
bin	99.181333333333	0
bin	99.214666666667	0
bin	99.248	0
bin	99.281333333333	0
bin	99.314666666667	0
bin	99.348	0
statistic RandomGeometricGraph.rgnv[4] 	arrivalPerc:histogram
field count 1
field mean 1
field stddev nan
field sum 1
field sqrsum 1
field min 1
field max 1
attr interpolationmode  none
attr source  count(arrival)
attr title  "arrival perc, histogram"
bin	-INF	0
bin	0	0
bin	1	1
bin	2	0
statistic RandomGeometricGraph.rgnv[5] 	arrivalTime:histogram
field count 1
field mean 165.013
field stddev nan
field sum 165.013
field sqrsum 27229.290169
field min 165.013
field max 165.013
attr interpolationmode  none
attr source  arrivalTime
attr title  "arrival time, histogram"
bin	-INF	0
bin	164.513	0
bin	164.54633333333	0
bin	164.57966666667	0
bin	164.613	0
bin	164.64633333333	0
bin	164.67966666667	0
bin	164.713	0
bin	164.74633333333	0
bin	164.77966666667	0
bin	164.813	0
bin	164.84633333333	0
bin	164.87966666667	0
bin	164.913	0
bin	164.94633333333	0
bin	164.97966666667	0
bin	165.013	1
bin	165.04633333333	0
bin	165.07966666667	0
bin	165.113	0
bin	165.14633333333	0
bin	165.17966666667	0
bin	165.213	0
bin	165.24633333333	0
bin	165.27966666667	0
bin	165.313	0
bin	165.34633333333	0
bin	165.37966666667	0
bin	165.413	0
bin	165.44633333333	0
bin	165.47966666667	0
bin	165.513	0
statistic RandomGeometricGraph.rgnv[5] 	arrivalPerc:histogram
field count 1
field mean 1
field stddev nan
field sum 1
field sqrsum 1
field min 1
field max 1
attr interpolationmode  none
attr source  count(arrival)
attr title  "arrival perc, histogram"
bin	-INF	0
bin	0	0
bin	1	1
bin	2	0
statistic RandomGeometricGraph.rgnv[6] 	arrivalTime:histogram
field count 1
field mean 37.693
field stddev nan
field sum 37.693
field sqrsum 1420.762249
field min 37.693
field max 37.693
attr interpolationmode  none
attr source  arrivalTime
attr title  "arrival time, histogram"
bin	-INF	0
bin	37.193	0
bin	37.226333333333	0
bin	37.259666666667	0
bin	37.293	0
bin	37.326333333333	0
bin	37.359666666667	0
bin	37.393	0
bin	37.426333333333	0
bin	37.459666666667	0
bin	37.493	0
bin	37.526333333333	0
bin	37.559666666667	0
bin	37.593	0
bin	37.626333333333	0
bin	37.659666666667	0
bin	37.693	1
bin	37.726333333333	0
bin	37.759666666667	0
bin	37.793	0
bin	37.826333333333	0
bin	37.859666666667	0
bin	37.893	0
bin	37.926333333333	0
bin	37.959666666667	0
bin	37.993	0
bin	38.026333333333	0
bin	38.059666666667	0
bin	38.093	0
bin	38.126333333333	0
bin	38.159666666667	0
bin	38.193	0
statistic RandomGeometricGraph.rgnv[6] 	arrivalPerc:histogram
field count 1
field mean 1
field stddev nan
field sum 1
field sqrsum 1
field min 1
field max 1
attr interpolationmode  none
attr source  count(arrival)
attr title  "arrival perc, histogram"
bin	-INF	0
bin	0	0
bin	1	1
bin	2	0
statistic RandomGeometricGraph.rgnv[7] 	arrivalTime:histogram
field count 1
field mean 67.175
field stddev nan
field sum 67.175
field sqrsum 4512.480625
field min 67.175
field max 67.175
attr interpolationmode  none
attr source  arrivalTime
attr title  "arrival time, histogram"
bin	-INF	0
bin	66.675	0
bin	66.708333333333	0
bin	66.741666666667	0
bin	66.775	0
bin	66.808333333333	0
bin	66.841666666667	0
bin	66.875	0
bin	66.908333333333	0
bin	66.941666666667	0
bin	66.975	0
bin	67.008333333333	0
bin	67.041666666667	0
bin	67.075	0
bin	67.108333333333	0
bin	67.141666666667	0
bin	67.175	1
bin	67.208333333333	0
bin	67.241666666667	0
bin	67.275	0
bin	67.308333333333	0
bin	67.341666666667	0
bin	67.375	0
bin	67.408333333333	0
bin	67.441666666667	0
bin	67.475	0
bin	67.508333333333	0
bin	67.541666666667	0
bin	67.575	0
bin	67.608333333333	0
bin	67.641666666667	0
bin	67.675	0
statistic RandomGeometricGraph.rgnv[7] 	arrivalPerc:histogram
field count 1
field mean 1
field stddev nan
field sum 1
field sqrsum 1
field min 1
field max 1
attr interpolationmode  none
attr source  count(arrival)
attr title  "arrival perc, histogram"
bin	-INF	0
bin	0	0
bin	1	1
bin	2	0
statistic RandomGeometricGraph.rgnv[8] 	arrivalTime:histogram
field count 1
field mean 99.416
field stddev nan
field sum 99.416
field sqrsum 9883.541056
field min 99.416
field max 99.416
attr interpolationmode  none
attr source  arrivalTime
attr title  "arrival time, histogram"
bin	-INF	0
bin	98.916	0
bin	98.949333333333	0
bin	98.982666666667	0
bin	99.016	0
bin	99.049333333333	0
bin	99.082666666667	0
bin	99.116	0
bin	99.149333333333	0
bin	99.182666666667	0
bin	99.216	0
bin	99.249333333333	0
bin	99.282666666667	0
bin	99.316	0
bin	99.349333333333	0
bin	99.382666666667	0
bin	99.416	1
bin	99.449333333333	0
bin	99.482666666667	0
bin	99.516	0
bin	99.549333333333	0
bin	99.582666666667	0
bin	99.616	0
bin	99.649333333333	0
bin	99.682666666667	0
bin	99.716	0
bin	99.749333333333	0
bin	99.782666666667	0
bin	99.816	0
bin	99.849333333333	0
bin	99.882666666667	0
bin	99.916	0
statistic RandomGeometricGraph.rgnv[8] 	arrivalPerc:histogram
field count 1
field mean 1
field stddev nan
field sum 1
field sqrsum 1
field min 1
field max 1
attr interpolationmode  none
attr source  count(arrival)
attr title  "arrival perc, histogram"
bin	-INF	0
bin	0	0
bin	1	1
bin	2	0
statistic RandomGeometricGraph.rgnv[9] 	arrivalTime:histogram
field count 1
field mean 153.878
field stddev nan
field sum 153.878
field sqrsum 23678.438884
field min 153.878
field max 153.878
attr interpolationmode  none
attr source  arrivalTime
attr title  "arrival time, histogram"
bin	-INF	0
bin	153.378	0
bin	153.41133333333	0
bin	153.44466666667	0
bin	153.478	0
bin	153.51133333333	0
bin	153.54466666667	0
bin	153.578	0
bin	153.61133333333	0
bin	153.64466666667	0
bin	153.678	0
bin	153.71133333333	0
bin	153.74466666667	0
bin	153.778	0
bin	153.81133333333	0
bin	153.84466666667	0
bin	153.878	1
bin	153.91133333333	0
bin	153.94466666667	0
bin	153.978	0
bin	154.01133333333	0
bin	154.04466666667	0
bin	154.078	0
bin	154.11133333333	0
bin	154.14466666667	0
bin	154.178	0
bin	154.21133333333	0
bin	154.24466666667	0
bin	154.278	0
bin	154.31133333333	0
bin	154.34466666667	0
bin	154.378	0
statistic RandomGeometricGraph.rgnv[9] 	arrivalPerc:histogram
field count 1
field mean 1
field stddev nan
field sum 1
field sqrsum 1
field min 1
field max 1
attr interpolationmode  none
attr source  count(arrival)
attr title  "arrival perc, histogram"
bin	-INF	0
bin	0	0
bin	1	1
bin	2	0
statistic RandomGeometricGraph.rgnv[10] 	arrivalTime:histogram
field count 1
field mean 187.244
field stddev nan
field sum 187.244
field sqrsum 35060.315536
field min 187.244
field max 187.244
attr interpolationmode  none
attr source  arrivalTime
attr title  "arrival time, histogram"
bin	-INF	0
bin	186.744	0
bin	186.77733333333	0
bin	186.81066666667	0
bin	186.844	0
bin	186.87733333333	0
bin	186.91066666667	0
bin	186.944	0
bin	186.97733333333	0
bin	187.01066666667	0
bin	187.044	0
bin	187.07733333333	0
bin	187.11066666667	0
bin	187.144	0
bin	187.17733333333	0
bin	187.21066666667	0
bin	187.244	1
bin	187.27733333333	0
bin	187.31066666667	0
bin	187.344	0
bin	187.37733333333	0
bin	187.41066666667	0
bin	187.444	0
bin	187.47733333333	0
bin	187.51066666667	0
bin	187.544	0
bin	187.57733333333	0
bin	187.61066666667	0
bin	187.644	0
bin	187.67733333333	0
bin	187.71066666667	0
bin	187.744	0
statistic RandomGeometricGraph.rgnv[10] 	arrivalPerc:histogram
field count 1
field mean 1
field stddev nan
field sum 1
field sqrsum 1
field min 1
field max 1
attr interpolationmode  none
attr source  count(arrival)
attr title  "arrival perc, histogram"
bin	-INF	0
bin	0	0
bin	1	1
bin	2	0
statistic RandomGeometricGraph.rgnv[11] 	arrivalTime:histogram
field count 1
field mean 94.416
field stddev nan
field sum 94.416
field sqrsum 8914.381056
field min 94.416
field max 94.416
attr interpolationmode  none
attr source  arrivalTime
attr title  "arrival time, histogram"
bin	-INF	0
bin	93.916	0
bin	93.949333333333	0
bin	93.982666666667	0
bin	94.016	0
bin	94.049333333333	0
bin	94.082666666667	0
bin	94.116	0
bin	94.149333333333	0
bin	94.182666666667	0
bin	94.216	0
bin	94.249333333333	0
bin	94.282666666667	0
bin	94.316	0
bin	94.349333333333	0
bin	94.382666666667	0
bin	94.416	1
bin	94.449333333333	0
bin	94.482666666667	0
bin	94.516	0
bin	94.549333333333	0
bin	94.582666666667	0
bin	94.616	0
bin	94.649333333333	0
bin	94.682666666667	0
bin	94.716	0
bin	94.749333333333	0
bin	94.782666666667	0
bin	94.816	0
bin	94.849333333333	0
bin	94.882666666667	0
bin	94.916	0
statistic RandomGeometricGraph.rgnv[11] 	arrivalPerc:histogram
field count 1
field mean 1
field stddev nan
field sum 1
field sqrsum 1
field min 1
field max 1
attr interpolationmode  none
attr source  count(arrival)
attr title  "arrival perc, histogram"
bin	-INF	0
bin	0	0
bin	1	1
bin	2	0
statistic RandomGeometricGraph.rgnv[12] 	arrivalTime:histogram
field count 1
field mean 131.099
field stddev nan
field sum 131.099
field sqrsum 17186.947801
field min 131.099
field max 131.099
attr interpolationmode  none
attr source  arrivalTime
attr title  "arrival time, histogram"
bin	-INF	0
bin	130.599	0
bin	130.63233333333	0
bin	130.66566666667	0
bin	130.699	0
bin	130.73233333333	0
bin	130.76566666667	0
bin	130.799	0
bin	130.83233333333	0
bin	130.86566666667	0
bin	130.899	0
bin	130.93233333333	0
bin	130.96566666667	0
bin	130.999	0
bin	131.03233333333	0
bin	131.06566666667	0
bin	131.099	1
bin	131.13233333333	0
bin	131.16566666667	0
bin	131.199	0
bin	131.23233333333	0
bin	131.26566666667	0
bin	131.299	0
bin	131.33233333333	0
bin	131.36566666667	0
bin	131.399	0
bin	131.43233333333	0
bin	131.46566666667	0
bin	131.499	0
bin	131.53233333333	0
bin	131.56566666667	0
bin	131.599	0
statistic RandomGeometricGraph.rgnv[12] 	arrivalPerc:histogram
field count 1
field mean 1
field stddev nan
field sum 1
field sqrsum 1
field min 1
field max 1
attr interpolationmode  none
attr source  count(arrival)
attr title  "arrival perc, histogram"
bin	-INF	0
bin	0	0
bin	1	1
bin	2	0
statistic RandomGeometricGraph.rgnv[13] 	arrivalTime:histogram
field count 1
field mean 49.934
field stddev nan
field sum 49.934
field sqrsum 2493.404356
field min 49.934
field max 49.934
attr interpolationmode  none
attr source  arrivalTime
attr title  "arrival time, histogram"
bin	-INF	0
bin	49.434	0
bin	49.467333333333	0
bin	49.500666666667	0
bin	49.534	0
bin	49.567333333333	0
bin	49.600666666667	0
bin	49.634	0
bin	49.667333333333	0
bin	49.700666666667	0
bin	49.734	0
bin	49.767333333333	0
bin	49.800666666667	0
bin	49.834	0
bin	49.867333333333	0
bin	49.900666666667	0
bin	49.934	1
bin	49.967333333333	0
bin	50.000666666667	0
bin	50.034	0
bin	50.067333333333	0
bin	50.100666666667	0
bin	50.134	0
bin	50.167333333333	0
bin	50.200666666667	0
bin	50.234	0
bin	50.267333333333	0
bin	50.300666666667	0
bin	50.334	0
bin	50.367333333333	0
bin	50.400666666667	0
bin	50.434	0
statistic RandomGeometricGraph.rgnv[13] 	arrivalPerc:histogram
field count 1
field mean 1
field stddev nan
field sum 1
field sqrsum 1
field min 1
field max 1
attr interpolationmode  none
attr source  count(arrival)
attr title  "arrival perc, histogram"
bin	-INF	0
bin	0	0
bin	1	1
bin	2	0
statistic RandomGeometricGraph.rgnv[14] 	arrivalTime:histogram
field count 1
field mean 67.165
field stddev nan
field sum 67.165
field sqrsum 4511.137225
field min 67.165
field max 67.165
attr interpolationmode  none
attr source  arrivalTime
attr title  "arrival time, histogram"
bin	-INF	0
bin	66.665	0
bin	66.698333333333	0
bin	66.731666666667	0
bin	66.765	0
bin	66.798333333333	0
bin	66.831666666667	0
bin	66.865	0
bin	66.898333333333	0
bin	66.931666666667	0
bin	66.965	0
bin	66.998333333333	0
bin	67.031666666667	0
bin	67.065	0
bin	67.098333333333	0
bin	67.131666666667	0
bin	67.165	1
bin	67.198333333333	0
bin	67.231666666667	0
bin	67.265	0
bin	67.298333333333	0
bin	67.331666666667	0
bin	67.365	0
bin	67.398333333333	0
bin	67.431666666667	0
bin	67.465	0
bin	67.498333333333	0
bin	67.531666666667	0
bin	67.565	0
bin	67.598333333333	0
bin	67.631666666667	0
bin	67.665	0
statistic RandomGeometricGraph.rgnv[14] 	arrivalPerc:histogram
field count 1
field mean 1
field stddev nan
field sum 1
field sqrsum 1
field min 1
field max 1
attr interpolationmode  none
attr source  count(arrival)
attr title  "arrival perc, histogram"
bin	-INF	0
bin	0	0
bin	1	1
bin	2	0
statistic RandomGeometricGraph.rgnv[15] 	arrivalTime:histogram
field count 1
field mean 126.089
field stddev nan
field sum 126.089
field sqrsum 15898.435921
field min 126.089
field max 126.089
attr interpolationmode  none
attr source  arrivalTime
attr title  "arrival time, histogram"
bin	-INF	0
bin	125.589	0
bin	125.62233333333	0
bin	125.65566666667	0
bin	125.689	0
bin	125.72233333333	0
bin	125.75566666667	0
bin	125.789	0
bin	125.82233333333	0
bin	125.85566666667	0
bin	125.889	0
bin	125.92233333333	0
bin	125.95566666667	0
bin	125.989	0
bin	126.02233333333	0
bin	126.05566666667	0
bin	126.089	1
bin	126.12233333333	0
bin	126.15566666667	0
bin	126.189	0
bin	126.22233333333	0
bin	126.25566666667	0
bin	126.289	0
bin	126.32233333333	0
bin	126.35566666667	0
bin	126.389	0
bin	126.42233333333	0
bin	126.45566666667	0
bin	126.489	0
bin	126.52233333333	0
bin	126.55566666667	0
bin	126.589	0
statistic RandomGeometricGraph.rgnv[15] 	arrivalPerc:histogram
field count 1
field mean 1
field stddev nan
field sum 1
field sqrsum 1
field min 1
field max 1
attr interpolationmode  none
attr source  count(arrival)
attr title  "arrival perc, histogram"
bin	-INF	0
bin	0	0
bin	1	1
bin	2	0
statistic RandomGeometricGraph.rgnv[16] 	arrivalTime:histogram
field count 1
field mean 121.089
field stddev nan
field sum 121.089
field sqrsum 14662.545921
field min 121.089
field max 121.089
attr interpolationmode  none
attr source  arrivalTime
attr title  "arrival time, histogram"
bin	-INF	0
bin	120.589	0
bin	120.62233333333	0
bin	120.65566666667	0
bin	120.689	0
bin	120.72233333333	0
bin	120.75566666667	0
bin	120.789	0
bin	120.82233333333	0
bin	120.85566666667	0
bin	120.889	0
bin	120.92233333333	0
bin	120.95566666667	0
bin	120.989	0
bin	121.02233333333	0
bin	121.05566666667	0
bin	121.089	1
bin	121.12233333333	0
bin	121.15566666667	0
bin	121.189	0
bin	121.22233333333	0
bin	121.25566666667	0
bin	121.289	0
bin	121.32233333333	0
bin	121.35566666667	0
bin	121.389	0
bin	121.42233333333	0
bin	121.45566666667	0
bin	121.489	0
bin	121.52233333333	0
bin	121.55566666667	0
bin	121.589	0
statistic RandomGeometricGraph.rgnv[16] 	arrivalPerc:histogram
field count 1
field mean 1
field stddev nan
field sum 1
field sqrsum 1
field min 1
field max 1
attr interpolationmode  none
attr source  count(arrival)
attr title  "arrival perc, histogram"
bin	-INF	0
bin	0	0
bin	1	1
bin	2	0
statistic RandomGeometricGraph.rgnv[17] 	arrivalTime:histogram
field count 1
field mean 91.627
field stddev nan
field sum 91.627
field sqrsum 8395.507129
field min 91.627
field max 91.627
attr interpolationmode  none
attr source  arrivalTime
attr title  "arrival time, histogram"
bin	-INF	0
bin	91.127	0
bin	91.160333333333	0
bin	91.193666666667	0
bin	91.227	0
bin	91.260333333333	0
bin	91.293666666667	0
bin	91.327	0
bin	91.360333333333	0
bin	91.393666666667	0
bin	91.427	0
bin	91.460333333333	0
bin	91.493666666667	0
bin	91.527	0
bin	91.560333333333	0
bin	91.593666666667	0
bin	91.627	1
bin	91.660333333333	0
bin	91.693666666667	0
bin	91.727	0
bin	91.760333333333	0
bin	91.793666666667	0
bin	91.827	0
bin	91.860333333333	0
bin	91.893666666667	0
bin	91.927	0
bin	91.960333333333	0
bin	91.993666666667	0
bin	92.027	0
bin	92.060333333333	0
bin	92.093666666667	0
bin	92.127	0
statistic RandomGeometricGraph.rgnv[17] 	arrivalPerc:histogram
field count 1
field mean 1
field stddev nan
field sum 1
field sqrsum 1
field min 1
field max 1
attr interpolationmode  none
attr source  count(arrival)
attr title  "arrival perc, histogram"
bin	-INF	0
bin	0	0
bin	1	1
bin	2	0
statistic RandomGeometricGraph.rgnv[18] 	arrivalTime:histogram
field count 1
field mean 111.637
field stddev nan
field sum 111.637
field sqrsum 12462.819769
field min 111.637
field max 111.637
attr interpolationmode  none
attr source  arrivalTime
attr title  "arrival time, histogram"
bin	-INF	0
bin	111.137	0
bin	111.17033333333	0
bin	111.20366666667	0
bin	111.237	0
bin	111.27033333333	0
bin	111.30366666667	0
bin	111.337	0
bin	111.37033333333	0
bin	111.40366666667	0
bin	111.437	0
bin	111.47033333333	0
bin	111.50366666667	0
bin	111.537	0
bin	111.57033333333	0
bin	111.60366666667	0
bin	111.637	1
bin	111.67033333333	0
bin	111.70366666667	0
bin	111.737	0
bin	111.77033333333	0
bin	111.80366666667	0
bin	111.837	0
bin	111.87033333333	0
bin	111.90366666667	0
bin	111.937	0
bin	111.97033333333	0
bin	112.00366666667	0
bin	112.037	0
bin	112.07033333333	0
bin	112.10366666667	0
bin	112.137	0
statistic RandomGeometricGraph.rgnv[18] 	arrivalPerc:histogram
field count 1
field mean 1
field stddev nan
field sum 1
field sqrsum 1
field min 1
field max 1
attr interpolationmode  none
attr source  count(arrival)
attr title  "arrival perc, histogram"
bin	-INF	0
bin	0	0
bin	1	1
bin	2	0
statistic RandomGeometricGraph.rgnv[19] 	arrivalTime:histogram
field count 1
field mean 79.396
field stddev nan
field sum 79.396
field sqrsum 6303.724816
field min 79.396
field max 79.396
attr interpolationmode  none
attr source  arrivalTime
attr title  "arrival time, histogram"
bin	-INF	0
bin	78.896	0
bin	78.929333333333	0
bin	78.962666666667	0
bin	78.996	0
bin	79.029333333333	0
bin	79.062666666667	0
bin	79.096	0
bin	79.129333333333	0
bin	79.162666666667	0
bin	79.196	0
bin	79.229333333333	0
bin	79.262666666667	0
bin	79.296	0
bin	79.329333333333	0
bin	79.362666666667	0
bin	79.396	1
bin	79.429333333333	0
bin	79.462666666667	0
bin	79.496	0
bin	79.529333333333	0
bin	79.562666666667	0
bin	79.596	0
bin	79.629333333333	0
bin	79.662666666667	0
bin	79.696	0
bin	79.729333333333	0
bin	79.762666666667	0
bin	79.796	0
bin	79.829333333333	0
bin	79.862666666667	0
bin	79.896	0
statistic RandomGeometricGraph.rgnv[19] 	arrivalPerc:histogram
field count 1
field mean 1
field stddev nan
field sum 1
field sqrsum 1
field min 1
field max 1
attr interpolationmode  none
attr source  count(arrival)
attr title  "arrival perc, histogram"
bin	-INF	0
bin	0	0
bin	1	1
bin	2	0
statistic RandomGeometricGraph.rgnv[20] 	arrivalTime:histogram
field count 1
field mean 67.165
field stddev nan
field sum 67.165
field sqrsum 4511.137225
field min 67.165
field max 67.165
attr interpolationmode  none
attr source  arrivalTime
attr title  "arrival time, histogram"
bin	-INF	0
bin	66.665	0
bin	66.698333333333	0
bin	66.731666666667	0
bin	66.765	0
bin	66.798333333333	0
bin	66.831666666667	0
bin	66.865	0
bin	66.898333333333	0
bin	66.931666666667	0
bin	66.965	0
bin	66.998333333333	0
bin	67.031666666667	0
bin	67.065	0
bin	67.098333333333	0
bin	67.131666666667	0
bin	67.165	1
bin	67.198333333333	0
bin	67.231666666667	0
bin	67.265	0
bin	67.298333333333	0
bin	67.331666666667	0
bin	67.365	0
bin	67.398333333333	0
bin	67.431666666667	0
bin	67.465	0
bin	67.498333333333	0
bin	67.531666666667	0
bin	67.565	0
bin	67.598333333333	0
bin	67.631666666667	0
bin	67.665	0
statistic RandomGeometricGraph.rgnv[20] 	arrivalPerc:histogram
field count 1
field mean 1
field stddev nan
field sum 1
field sqrsum 1
field min 1
field max 1
attr interpolationmode  none
attr source  count(arrival)
attr title  "arrival perc, histogram"
bin	-INF	0
bin	0	0
bin	1	1
bin	2	0
statistic RandomGeometricGraph.rgnv[21] 	arrivalTime:histogram
field count 1
field mean 79.396
field stddev nan
field sum 79.396
field sqrsum 6303.724816
field min 79.396
field max 79.396
attr interpolationmode  none
attr source  arrivalTime
attr title  "arrival time, histogram"
bin	-INF	0
bin	78.896	0
bin	78.929333333333	0
bin	78.962666666667	0
bin	78.996	0
bin	79.029333333333	0
bin	79.062666666667	0
bin	79.096	0
bin	79.129333333333	0
bin	79.162666666667	0
bin	79.196	0
bin	79.229333333333	0
bin	79.262666666667	0
bin	79.296	0
bin	79.329333333333	0
bin	79.362666666667	0
bin	79.396	1
bin	79.429333333333	0
bin	79.462666666667	0
bin	79.496	0
bin	79.529333333333	0
bin	79.562666666667	0
bin	79.596	0
bin	79.629333333333	0
bin	79.662666666667	0
bin	79.696	0
bin	79.729333333333	0
bin	79.762666666667	0
bin	79.796	0
bin	79.829333333333	0
bin	79.862666666667	0
bin	79.896	0
statistic RandomGeometricGraph.rgnv[21] 	arrivalPerc:histogram
field count 1
field mean 1
field stddev nan
field sum 1
field sqrsum 1
field min 1
field max 1
attr interpolationmode  none
attr source  count(arrival)
attr title  "arrival perc, histogram"
bin	-INF	0
bin	0	0
bin	1	1
bin	2	0
statistic RandomGeometricGraph.rgnv[22] 	arrivalTime:histogram
field count 1
field mean 94.426
field stddev nan
field sum 94.426
field sqrsum 8916.269476
field min 94.426
field max 94.426
attr interpolationmode  none
attr source  arrivalTime
attr title  "arrival time, histogram"
bin	-INF	0
bin	93.926	0
bin	93.959333333333	0
bin	93.992666666667	0
bin	94.026	0
bin	94.059333333333	0
bin	94.092666666667	0
bin	94.126	0
bin	94.159333333333	0
bin	94.192666666667	0
bin	94.226	0
bin	94.259333333333	0
bin	94.292666666667	0
bin	94.326	0
bin	94.359333333333	0
bin	94.392666666667	0
bin	94.426	1
bin	94.459333333333	0
bin	94.492666666667	0
bin	94.526	0
bin	94.559333333333	0
bin	94.592666666667	0
bin	94.626	0
bin	94.659333333333	0
bin	94.692666666667	0
bin	94.726	0
bin	94.759333333333	0
bin	94.792666666667	0
bin	94.826	0
bin	94.859333333333	0
bin	94.892666666667	0
bin	94.926	0
statistic RandomGeometricGraph.rgnv[22] 	arrivalPerc:histogram
field count 1
field mean 1
field stddev nan
field sum 1
field sqrsum 1
field min 1
field max 1
attr interpolationmode  none
attr source  count(arrival)
attr title  "arrival perc, histogram"
bin	-INF	0
bin	0	0
bin	1	1
bin	2	0
statistic RandomGeometricGraph.rgnv[23] 	arrivalTime:histogram
field count 1
field mean 151.099
field stddev nan
field sum 151.099
field sqrsum 22830.907801
field min 151.099
field max 151.099
attr interpolationmode  none
attr source  arrivalTime
attr title  "arrival time, histogram"
bin	-INF	0
bin	150.599	0
bin	150.63233333333	0
bin	150.66566666667	0
bin	150.699	0
bin	150.73233333333	0
bin	150.76566666667	0
bin	150.799	0
bin	150.83233333333	0
bin	150.86566666667	0
bin	150.899	0
bin	150.93233333333	0
bin	150.96566666667	0
bin	150.999	0
bin	151.03233333333	0
bin	151.06566666667	0
bin	151.099	1
bin	151.13233333333	0
bin	151.16566666667	0
bin	151.199	0
bin	151.23233333333	0
bin	151.26566666667	0
bin	151.299	0
bin	151.33233333333	0
bin	151.36566666667	0
bin	151.399	0
bin	151.43233333333	0
bin	151.46566666667	0
bin	151.499	0
bin	151.53233333333	0
bin	151.56566666667	0
bin	151.599	0
statistic RandomGeometricGraph.rgnv[23] 	arrivalPerc:histogram
field count 1
field mean 1
field stddev nan
field sum 1
field sqrsum 1
field min 1
field max 1
attr interpolationmode  none
attr source  count(arrival)
attr title  "arrival perc, histogram"
bin	-INF	0
bin	0	0
bin	1	1
bin	2	0
statistic RandomGeometricGraph.rgnv[24] 	arrivalTime:histogram
field count 1
field mean 212.782
field stddev nan
field sum 212.782
field sqrsum 45276.179524
field min 212.782
field max 212.782
attr interpolationmode  none
attr source  arrivalTime
attr title  "arrival time, histogram"
bin	-INF	0
bin	212.282	0
bin	212.31533333333	0
bin	212.34866666667	0
bin	212.382	0
bin	212.41533333333	0
bin	212.44866666667	0
bin	212.482	0
bin	212.51533333333	0
bin	212.54866666667	0
bin	212.582	0
bin	212.61533333333	0
bin	212.64866666667	0
bin	212.682	0
bin	212.71533333333	0
bin	212.74866666667	0
bin	212.782	1
bin	212.81533333333	0
bin	212.84866666667	0
bin	212.882	0
bin	212.91533333333	0
bin	212.94866666667	0
bin	212.982	0
bin	213.01533333333	0
bin	213.04866666667	0
bin	213.082	0
bin	213.11533333333	0
bin	213.14866666667	0
bin	213.182	0
bin	213.21533333333	0
bin	213.24866666667	0
bin	213.282	0
statistic RandomGeometricGraph.rgnv[24] 	arrivalPerc:histogram
field count 1
field mean 1
field stddev nan
field sum 1
field sqrsum 1
field min 1
field max 1
attr interpolationmode  none
attr source  count(arrival)
attr title  "arrival perc, histogram"
bin	-INF	0
bin	0	0
bin	1	1
bin	2	0
statistic RandomGeometricGraph.rgnv[25] 	arrivalTime:histogram
field count 1
field mean 158.878
field stddev nan
field sum 158.878
field sqrsum 25242.218884
field min 158.878
field max 158.878
attr interpolationmode  none
attr source  arrivalTime
attr title  "arrival time, histogram"
bin	-INF	0
bin	158.378	0
bin	158.41133333333	0
bin	158.44466666667	0
bin	158.478	0
bin	158.51133333333	0
bin	158.54466666667	0
bin	158.578	0
bin	158.61133333333	0
bin	158.64466666667	0
bin	158.678	0
bin	158.71133333333	0
bin	158.74466666667	0
bin	158.778	0
bin	158.81133333333	0
bin	158.84466666667	0
bin	158.878	1
bin	158.91133333333	0
bin	158.94466666667	0
bin	158.978	0
bin	159.01133333333	0
bin	159.04466666667	0
bin	159.078	0
bin	159.11133333333	0
bin	159.14466666667	0
bin	159.178	0
bin	159.21133333333	0
bin	159.24466666667	0
bin	159.278	0
bin	159.31133333333	0
bin	159.34466666667	0
bin	159.378	0
statistic RandomGeometricGraph.rgnv[25] 	arrivalPerc:histogram
field count 1
field mean 1
field stddev nan
field sum 1
field sqrsum 1
field min 1
field max 1
attr interpolationmode  none
attr source  count(arrival)
attr title  "arrival perc, histogram"
bin	-INF	0
bin	0	0
bin	1	1
bin	2	0
statistic RandomGeometricGraph.rgnv[26] 	arrivalTime:histogram
field count 1
field mean 147.772
field stddev nan
field sum 147.772
field sqrsum 21836.563984
field min 147.772
field max 147.772
attr interpolationmode  none
attr source  arrivalTime
attr title  "arrival time, histogram"
bin	-INF	0
bin	147.272	0
bin	147.30533333333	0
bin	147.33866666667	0
bin	147.372	0
bin	147.40533333333	0
bin	147.43866666667	0
bin	147.472	0
bin	147.50533333333	0
bin	147.53866666667	0
bin	147.572	0
bin	147.60533333333	0
bin	147.63866666667	0
bin	147.672	0
bin	147.70533333333	0
bin	147.73866666667	0
bin	147.772	1
bin	147.80533333333	0
bin	147.83866666667	0
bin	147.872	0
bin	147.90533333333	0
bin	147.93866666667	0
bin	147.972	0
bin	148.00533333333	0
bin	148.03866666667	0
bin	148.072	0
bin	148.10533333333	0
bin	148.13866666667	0
bin	148.172	0
bin	148.20533333333	0
bin	148.23866666667	0
bin	148.272	0
statistic RandomGeometricGraph.rgnv[26] 	arrivalPerc:histogram
field count 1
field mean 1
field stddev nan
field sum 1
field sqrsum 1
field min 1
field max 1
attr interpolationmode  none
attr source  count(arrival)
attr title  "arrival perc, histogram"
bin	-INF	0
bin	0	0
bin	1	1
bin	2	0
statistic RandomGeometricGraph.rgnv[27] 	arrivalTime:histogram
field count 1
field mean 190.551
field stddev nan
field sum 190.551
field sqrsum 36309.683601
field min 190.551
field max 190.551
attr interpolationmode  none
attr source  arrivalTime
attr title  "arrival time, histogram"
bin	-INF	0
bin	190.051	0
bin	190.08433333333	0
bin	190.11766666667	0
bin	190.151	0
bin	190.18433333333	0
bin	190.21766666667	0
bin	190.251	0
bin	190.28433333333	0
bin	190.31766666667	0
bin	190.351	0
bin	190.38433333333	0
bin	190.41766666667	0
bin	190.451	0
bin	190.48433333333	0
bin	190.51766666667	0
bin	190.551	1
bin	190.58433333333	0
bin	190.61766666667	0
bin	190.651	0
bin	190.68433333333	0
bin	190.71766666667	0
bin	190.751	0
bin	190.78433333333	0
bin	190.81766666667	0
bin	190.851	0
bin	190.88433333333	0
bin	190.91766666667	0
bin	190.951	0
bin	190.98433333333	0
bin	191.01766666667	0
bin	191.051	0
statistic RandomGeometricGraph.rgnv[27] 	arrivalPerc:histogram
field count 1
field mean 1
field stddev nan
field sum 1
field sqrsum 1
field min 1
field max 1
attr interpolationmode  none
attr source  count(arrival)
attr title  "arrival perc, histogram"
bin	-INF	0
bin	0	0
bin	1	1
bin	2	0
statistic RandomGeometricGraph.rgnv[28] 	arrivalTime:histogram
field count 1
field mean 123.868
field stddev nan
field sum 123.868
field sqrsum 15343.281424
field min 123.868
field max 123.868
attr interpolationmode  none
attr source  arrivalTime
attr title  "arrival time, histogram"
bin	-INF	0
bin	123.368	0
bin	123.40133333333	0
bin	123.43466666667	0
bin	123.468	0
bin	123.50133333333	0
bin	123.53466666667	0
bin	123.568	0
bin	123.60133333333	0
bin	123.63466666667	0
bin	123.668	0
bin	123.70133333333	0
bin	123.73466666667	0
bin	123.768	0
bin	123.80133333333	0
bin	123.83466666667	0
bin	123.868	1
bin	123.90133333333	0
bin	123.93466666667	0
bin	123.968	0
bin	124.00133333333	0
bin	124.03466666667	0
bin	124.068	0
bin	124.10133333333	0
bin	124.13466666667	0
bin	124.168	0
bin	124.20133333333	0
bin	124.23466666667	0
bin	124.268	0
bin	124.30133333333	0
bin	124.33466666667	0
bin	124.368	0
statistic RandomGeometricGraph.rgnv[28] 	arrivalPerc:histogram
field count 1
field mean 1
field stddev nan
field sum 1
field sqrsum 1
field min 1
field max 1
attr interpolationmode  none
attr source  count(arrival)
attr title  "arrival perc, histogram"
bin	-INF	0
bin	0	0
bin	1	1
bin	2	0
statistic RandomGeometricGraph.rgnv[29] 	arrivalTime:histogram
field count 1
field mean 220.561
field stddev nan
field sum 220.561
field sqrsum 48647.154721
field min 220.561
field max 220.561
attr interpolationmode  none
attr source  arrivalTime
attr title  "arrival time, histogram"
bin	-INF	0
bin	220.061	0
bin	220.09433333333	0
bin	220.12766666667	0
bin	220.161	0
bin	220.19433333333	0
bin	220.22766666667	0
bin	220.261	0
bin	220.29433333333	0
bin	220.32766666667	0
bin	220.361	0
bin	220.39433333333	0
bin	220.42766666667	0
bin	220.461	0
bin	220.49433333333	0
bin	220.52766666667	0
bin	220.561	1
bin	220.59433333333	0
bin	220.62766666667	0
bin	220.661	0
bin	220.69433333333	0
bin	220.72766666667	0
bin	220.761	0
bin	220.79433333333	0
bin	220.82766666667	0
bin	220.861	0
bin	220.89433333333	0
bin	220.92766666667	0
bin	220.961	0
bin	220.99433333333	0
bin	221.02766666667	0
bin	221.061	0
statistic RandomGeometricGraph.rgnv[29] 	arrivalPerc:histogram
field count 1
field mean 1
field stddev nan
field sum 1
field sqrsum 1
field min 1
field max 1
attr interpolationmode  none
attr source  count(arrival)
attr title  "arrival perc, histogram"
bin	-INF	0
bin	0	0
bin	1	1
bin	2	0
statistic RandomGeometricGraph.rgnv[30] 	arrivalTime:histogram
field count 1
field mean 25.462
field stddev nan
field sum 25.462
field sqrsum 648.313444
field min 25.462
field max 25.462
attr interpolationmode  none
attr source  arrivalTime
attr title  "arrival time, histogram"
bin	-INF	0
bin	24.962	0
bin	24.995333333333	0
bin	25.028666666667	0
bin	25.062	0
bin	25.095333333333	0
bin	25.128666666667	0
bin	25.162	0
bin	25.195333333333	0
bin	25.228666666667	0
bin	25.262	0
bin	25.295333333333	0
bin	25.328666666667	0
bin	25.362	0
bin	25.395333333333	0
bin	25.428666666667	0
bin	25.462	1
bin	25.495333333333	0
bin	25.528666666667	0
bin	25.562	0
bin	25.595333333333	0
bin	25.628666666667	0
bin	25.662	0
bin	25.695333333333	0
bin	25.728666666667	0
bin	25.762	0
bin	25.795333333333	0
bin	25.828666666667	0
bin	25.862	0
bin	25.895333333333	0
bin	25.928666666667	0
bin	25.962	0
statistic RandomGeometricGraph.rgnv[30] 	arrivalPerc:histogram
field count 1
field mean 1
field stddev nan
field sum 1
field sqrsum 1
field min 1
field max 1
attr interpolationmode  none
attr source  count(arrival)
attr title  "arrival perc, histogram"
bin	-INF	0
bin	0	0
bin	1	1
bin	2	0
statistic RandomGeometricGraph.rgnv[31] 	arrivalTime:histogram
field count 1
field mean 202.244
field stddev nan
field sum 202.244
field sqrsum 40902.635536
field min 202.244
field max 202.244
attr interpolationmode  none
attr source  arrivalTime
attr title  "arrival time, histogram"
bin	-INF	0
bin	201.744	0
bin	201.77733333333	0
bin	201.81066666667	0
bin	201.844	0
bin	201.87733333333	0
bin	201.91066666667	0
bin	201.944	0
bin	201.97733333333	0
bin	202.01066666667	0
bin	202.044	0
bin	202.07733333333	0
bin	202.11066666667	0
bin	202.144	0
bin	202.17733333333	0
bin	202.21066666667	0
bin	202.244	1
bin	202.27733333333	0
bin	202.31066666667	0
bin	202.344	0
bin	202.37733333333	0
bin	202.41066666667	0
bin	202.444	0
bin	202.47733333333	0
bin	202.51066666667	0
bin	202.544	0
bin	202.57733333333	0
bin	202.61066666667	0
bin	202.644	0
bin	202.67733333333	0
bin	202.71066666667	0
bin	202.744	0
statistic RandomGeometricGraph.rgnv[31] 	arrivalPerc:histogram
field count 1
field mean 1
field stddev nan
field sum 1
field sqrsum 1
field min 1
field max 1
attr interpolationmode  none
attr source  count(arrival)
attr title  "arrival perc, histogram"
bin	-INF	0
bin	0	0
bin	1	1
bin	2	0
statistic RandomGeometricGraph.rgnv[32] 	arrivalTime:histogram
field count 1
field mean 146.657
field stddev nan
field sum 146.657
field sqrsum 21508.275649
field min 146.657
field max 146.657
attr interpolationmode  none
attr source  arrivalTime
attr title  "arrival time, histogram"
bin	-INF	0
bin	146.157	0
bin	146.19033333333	0
bin	146.22366666667	0
bin	146.257	0
bin	146.29033333333	0
bin	146.32366666667	0
bin	146.357	0
bin	146.39033333333	0
bin	146.42366666667	0
bin	146.457	0
bin	146.49033333333	0
bin	146.52366666667	0
bin	146.557	0
bin	146.59033333333	0
bin	146.62366666667	0
bin	146.657	1
bin	146.69033333333	0
bin	146.72366666667	0
bin	146.757	0
bin	146.79033333333	0
bin	146.82366666667	0
bin	146.857	0
bin	146.89033333333	0
bin	146.92366666667	0
bin	146.957	0
bin	146.99033333333	0
bin	147.02366666667	0
bin	147.057	0
bin	147.09033333333	0
bin	147.12366666667	0
bin	147.157	0
statistic RandomGeometricGraph.rgnv[32] 	arrivalPerc:histogram
field count 1
field mean 1
field stddev nan
field sum 1
field sqrsum 1
field min 1
field max 1
attr interpolationmode  none
attr source  count(arrival)
attr title  "arrival perc, histogram"
bin	-INF	0
bin	0	0
bin	1	1
bin	2	0
statistic RandomGeometricGraph.rgnv[33] 	arrivalTime:histogram
field count 1
field mean 116.637
field stddev nan
field sum 116.637
field sqrsum 13604.189769
field min 116.637
field max 116.637
attr interpolationmode  none
attr source  arrivalTime
attr title  "arrival time, histogram"
bin	-INF	0
bin	116.137	0
bin	116.17033333333	0
bin	116.20366666667	0
bin	116.237	0
bin	116.27033333333	0
bin	116.30366666667	0
bin	116.337	0
bin	116.37033333333	0
bin	116.40366666667	0
bin	116.437	0
bin	116.47033333333	0
bin	116.50366666667	0
bin	116.537	0
bin	116.57033333333	0
bin	116.60366666667	0
bin	116.637	1
bin	116.67033333333	0
bin	116.70366666667	0
bin	116.737	0
bin	116.77033333333	0
bin	116.80366666667	0
bin	116.837	0
bin	116.87033333333	0
bin	116.90366666667	0
bin	116.937	0
bin	116.97033333333	0
bin	117.00366666667	0
bin	117.037	0
bin	117.07033333333	0
bin	117.10366666667	0
bin	117.137	0
statistic RandomGeometricGraph.rgnv[33] 	arrivalPerc:histogram
field count 1
field mean 1
field stddev nan
field sum 1
field sqrsum 1
field min 1
field max 1
attr interpolationmode  none
attr source  count(arrival)
attr title  "arrival perc, histogram"
bin	-INF	0
bin	0	0
bin	1	1
bin	2	0
statistic RandomGeometricGraph.rgnv[34] 	arrivalTime:histogram
field count 1
field mean 176.109
field stddev nan
field sum 176.109
field sqrsum 31014.379881
field min 176.109
field max 176.109
attr interpolationmode  none
attr source  arrivalTime
attr title  "arrival time, histogram"
bin	-INF	0
bin	175.609	0
bin	175.64233333333	0
bin	175.67566666667	0
bin	175.709	0
bin	175.74233333333	0
bin	175.77566666667	0
bin	175.809	0
bin	175.84233333333	0
bin	175.87566666667	0
bin	175.909	0
bin	175.94233333333	0
bin	175.97566666667	0
bin	176.009	0
bin	176.04233333333	0
bin	176.07566666667	0
bin	176.109	1
bin	176.14233333333	0
bin	176.17566666667	0
bin	176.209	0
bin	176.24233333333	0
bin	176.27566666667	0
bin	176.309	0
bin	176.34233333333	0
bin	176.37566666667	0
bin	176.409	0
bin	176.44233333333	0
bin	176.47566666667	0
bin	176.509	0
bin	176.54233333333	0
bin	176.57566666667	0
bin	176.609	0
statistic RandomGeometricGraph.rgnv[34] 	arrivalPerc:histogram
field count 1
field mean 1
field stddev nan
field sum 1
field sqrsum 1
field min 1
field max 1
attr interpolationmode  none
attr source  count(arrival)
attr title  "arrival perc, histogram"
bin	-INF	0
bin	0	0
bin	1	1
bin	2	0
statistic RandomGeometricGraph.rgnv[35] 	arrivalTime:histogram
field count 1
field mean 161.099
field stddev nan
field sum 161.099
field sqrsum 25952.887801
field min 161.099
field max 161.099
attr interpolationmode  none
attr source  arrivalTime
attr title  "arrival time, histogram"
bin	-INF	0
bin	160.599	0
bin	160.63233333333	0
bin	160.66566666667	0
bin	160.699	0
bin	160.73233333333	0
bin	160.76566666667	0
bin	160.799	0
bin	160.83233333333	0
bin	160.86566666667	0
bin	160.899	0
bin	160.93233333333	0
bin	160.96566666667	0
bin	160.999	0
bin	161.03233333333	0
bin	161.06566666667	0
bin	161.099	1
bin	161.13233333333	0
bin	161.16566666667	0
bin	161.199	0
bin	161.23233333333	0
bin	161.26566666667	0
bin	161.299	0
bin	161.33233333333	0
bin	161.36566666667	0
bin	161.399	0
bin	161.43233333333	0
bin	161.46566666667	0
bin	161.499	0
bin	161.53233333333	0
bin	161.56566666667	0
bin	161.599	0
statistic RandomGeometricGraph.rgnv[35] 	arrivalPerc:histogram
field count 1
field mean 1
field stddev nan
field sum 1
field sqrsum 1
field min 1
field max 1
attr interpolationmode  none
attr source  count(arrival)
attr title  "arrival perc, histogram"
bin	-INF	0
bin	0	0
bin	1	1
bin	2	0
statistic RandomGeometricGraph.rgnv[36] 	arrivalTime:histogram
field count 1
field mean 176.109
field stddev nan
field sum 176.109
field sqrsum 31014.379881
field min 176.109
field max 176.109
attr interpolationmode  none
attr source  arrivalTime
attr title  "arrival time, histogram"
bin	-INF	0
bin	175.609	0
bin	175.64233333333	0
bin	175.67566666667	0
bin	175.709	0
bin	175.74233333333	0
bin	175.77566666667	0
bin	175.809	0
bin	175.84233333333	0
bin	175.87566666667	0
bin	175.909	0
bin	175.94233333333	0
bin	175.97566666667	0
bin	176.009	0
bin	176.04233333333	0
bin	176.07566666667	0
bin	176.109	1
bin	176.14233333333	0
bin	176.17566666667	0
bin	176.209	0
bin	176.24233333333	0
bin	176.27566666667	0
bin	176.309	0
bin	176.34233333333	0
bin	176.37566666667	0
bin	176.409	0
bin	176.44233333333	0
bin	176.47566666667	0
bin	176.509	0
bin	176.54233333333	0
bin	176.57566666667	0
bin	176.609	0
statistic RandomGeometricGraph.rgnv[36] 	arrivalPerc:histogram
field count 1
field mean 1
field stddev nan
field sum 1
field sqrsum 1
field min 1
field max 1
attr interpolationmode  none
attr source  count(arrival)
attr title  "arrival perc, histogram"
bin	-INF	0
bin	0	0
bin	1	1
bin	2	0
statistic RandomGeometricGraph.rgnv[37] 	arrivalTime:histogram
field count 1
field mean 111.079
field stddev nan
field sum 111.079
field sqrsum 12338.544241
field min 111.079
field max 111.079
attr interpolationmode  none
attr source  arrivalTime
attr title  "arrival time, histogram"
bin	-INF	0
bin	110.579	0
bin	110.61233333333	0
bin	110.64566666667	0
bin	110.679	0
bin	110.71233333333	0
bin	110.74566666667	0
bin	110.779	0
bin	110.81233333333	0
bin	110.84566666667	0
bin	110.879	0
bin	110.91233333333	0
bin	110.94566666667	0
bin	110.979	0
bin	111.01233333333	0
bin	111.04566666667	0
bin	111.079	1
bin	111.11233333333	0
bin	111.14566666667	0
bin	111.179	0
bin	111.21233333333	0
bin	111.24566666667	0
bin	111.279	0
bin	111.31233333333	0
bin	111.34566666667	0
bin	111.379	0
bin	111.41233333333	0
bin	111.44566666667	0
bin	111.479	0
bin	111.51233333333	0
bin	111.54566666667	0
bin	111.579	0
statistic RandomGeometricGraph.rgnv[37] 	arrivalPerc:histogram
field count 1
field mean 1
field stddev nan
field sum 1
field sqrsum 1
field min 1
field max 1
attr interpolationmode  none
attr source  count(arrival)
attr title  "arrival perc, histogram"
bin	-INF	0
bin	0	0
bin	1	1
bin	2	0
statistic RandomGeometricGraph.rgnv[38] 	arrivalTime:histogram
field count 1
field mean 151.099
field stddev nan
field sum 151.099
field sqrsum 22830.907801
field min 151.099
field max 151.099
attr interpolationmode  none
attr source  arrivalTime
attr title  "arrival time, histogram"
bin	-INF	0
bin	150.599	0
bin	150.63233333333	0
bin	150.66566666667	0
bin	150.699	0
bin	150.73233333333	0
bin	150.76566666667	0
bin	150.799	0
bin	150.83233333333	0
bin	150.86566666667	0
bin	150.899	0
bin	150.93233333333	0
bin	150.96566666667	0
bin	150.999	0
bin	151.03233333333	0
bin	151.06566666667	0
bin	151.099	1
bin	151.13233333333	0
bin	151.16566666667	0
bin	151.199	0
bin	151.23233333333	0
bin	151.26566666667	0
bin	151.299	0
bin	151.33233333333	0
bin	151.36566666667	0
bin	151.399	0
bin	151.43233333333	0
bin	151.46566666667	0
bin	151.499	0
bin	151.53233333333	0
bin	151.56566666667	0
bin	151.599	0
statistic RandomGeometricGraph.rgnv[38] 	arrivalPerc:histogram
field count 1
field mean 1
field stddev nan
field sum 1
field sqrsum 1
field min 1
field max 1
attr interpolationmode  none
attr source  count(arrival)
attr title  "arrival perc, histogram"
bin	-INF	0
bin	0	0
bin	1	1
bin	2	0
statistic RandomGeometricGraph.rgnv[39] 	arrivalTime:histogram
field count 1
field mean 42.713
field stddev nan
field sum 42.713
field sqrsum 1824.400369
field min 42.713
field max 42.713
attr interpolationmode  none
attr source  arrivalTime
attr title  "arrival time, histogram"
bin	-INF	0
bin	42.213	0
bin	42.246333333333	0
bin	42.279666666667	0
bin	42.313	0
bin	42.346333333333	0
bin	42.379666666667	0
bin	42.413	0
bin	42.446333333333	0
bin	42.479666666667	0
bin	42.513	0
bin	42.546333333333	0
bin	42.579666666667	0
bin	42.613	0
bin	42.646333333333	0
bin	42.679666666667	0
bin	42.713	1
bin	42.746333333333	0
bin	42.779666666667	0
bin	42.813	0
bin	42.846333333333	0
bin	42.879666666667	0
bin	42.913	0
bin	42.946333333333	0
bin	42.979666666667	0
bin	43.013	0
bin	43.046333333333	0
bin	43.079666666667	0
bin	43.113	0
bin	43.146333333333	0
bin	43.179666666667	0
bin	43.213	0
statistic RandomGeometricGraph.rgnv[39] 	arrivalPerc:histogram
field count 1
field mean 1
field stddev nan
field sum 1
field sqrsum 1
field min 1
field max 1
attr interpolationmode  none
attr source  count(arrival)
attr title  "arrival perc, histogram"
bin	-INF	0
bin	0	0
bin	1	1
bin	2	0
statistic RandomGeometricGraph.rgnv[40] 	arrivalTime:histogram
field count 1
field mean 165.013
field stddev nan
field sum 165.013
field sqrsum 27229.290169
field min 165.013
field max 165.013
attr interpolationmode  none
attr source  arrivalTime
attr title  "arrival time, histogram"
bin	-INF	0
bin	164.513	0
bin	164.54633333333	0
bin	164.57966666667	0
bin	164.613	0
bin	164.64633333333	0
bin	164.67966666667	0
bin	164.713	0
bin	164.74633333333	0
bin	164.77966666667	0
bin	164.813	0
bin	164.84633333333	0
bin	164.87966666667	0
bin	164.913	0
bin	164.94633333333	0
bin	164.97966666667	0
bin	165.013	1
bin	165.04633333333	0
bin	165.07966666667	0
bin	165.113	0
bin	165.14633333333	0
bin	165.17966666667	0
bin	165.213	0
bin	165.24633333333	0
bin	165.27966666667	0
bin	165.313	0
bin	165.34633333333	0
bin	165.37966666667	0
bin	165.413	0
bin	165.44633333333	0
bin	165.47966666667	0
bin	165.513	0
statistic RandomGeometricGraph.rgnv[40] 	arrivalPerc:histogram
field count 1
field mean 1
field stddev nan
field sum 1
field sqrsum 1
field min 1
field max 1
attr interpolationmode  none
attr source  count(arrival)
attr title  "arrival perc, histogram"
bin	-INF	0
bin	0	0
bin	1	1
bin	2	0
statistic RandomGeometricGraph.rgnv[41] 	arrivalTime:histogram
field count 1
field mean 106.637
field stddev nan
field sum 106.637
field sqrsum 11371.449769
field min 106.637
field max 106.637
attr interpolationmode  none
attr source  arrivalTime
attr title  "arrival time, histogram"
bin	-INF	0
bin	106.137	0
bin	106.17033333333	0
bin	106.20366666667	0
bin	106.237	0
bin	106.27033333333	0
bin	106.30366666667	0
bin	106.337	0
bin	106.37033333333	0
bin	106.40366666667	0
bin	106.437	0
bin	106.47033333333	0
bin	106.50366666667	0
bin	106.537	0
bin	106.57033333333	0
bin	106.60366666667	0
bin	106.637	1
bin	106.67033333333	0
bin	106.70366666667	0
bin	106.737	0
bin	106.77033333333	0
bin	106.80366666667	0
bin	106.837	0
bin	106.87033333333	0
bin	106.90366666667	0
bin	106.937	0
bin	106.97033333333	0
bin	107.00366666667	0
bin	107.037	0
bin	107.07033333333	0
bin	107.10366666667	0
bin	107.137	0
statistic RandomGeometricGraph.rgnv[41] 	arrivalPerc:histogram
field count 1
field mean 1
field stddev nan
field sum 1
field sqrsum 1
field min 1
field max 1
attr interpolationmode  none
attr source  count(arrival)
attr title  "arrival perc, histogram"
bin	-INF	0
bin	0	0
bin	1	1
bin	2	0
statistic RandomGeometricGraph.rgnv[42] 	arrivalTime:histogram
field count 1
field mean 131.099
field stddev nan
field sum 131.099
field sqrsum 17186.947801
field min 131.099
field max 131.099
attr interpolationmode  none
attr source  arrivalTime
attr title  "arrival time, histogram"
bin	-INF	0
bin	130.599	0
bin	130.63233333333	0
bin	130.66566666667	0
bin	130.699	0
bin	130.73233333333	0
bin	130.76566666667	0
bin	130.799	0
bin	130.83233333333	0
bin	130.86566666667	0
bin	130.899	0
bin	130.93233333333	0
bin	130.96566666667	0
bin	130.999	0
bin	131.03233333333	0
bin	131.06566666667	0
bin	131.099	1
bin	131.13233333333	0
bin	131.16566666667	0
bin	131.199	0
bin	131.23233333333	0
bin	131.26566666667	0
bin	131.299	0
bin	131.33233333333	0
bin	131.36566666667	0
bin	131.399	0
bin	131.43233333333	0
bin	131.46566666667	0
bin	131.499	0
bin	131.53233333333	0
bin	131.56566666667	0
bin	131.599	0
statistic RandomGeometricGraph.rgnv[42] 	arrivalPerc:histogram
field count 1
field mean 1
field stddev nan
field sum 1
field sqrsum 1
field min 1
field max 1
attr interpolationmode  none
attr source  count(arrival)
attr title  "arrival perc, histogram"
bin	-INF	0
bin	0	0
bin	1	1
bin	2	0
statistic RandomGeometricGraph.rgnv[43] 	arrivalTime:histogram
field count 1
field mean 96.627
field stddev nan
field sum 96.627
field sqrsum 9336.777129
field min 96.627
field max 96.627
attr interpolationmode  none
attr source  arrivalTime
attr title  "arrival time, histogram"
bin	-INF	0
bin	96.127	0
bin	96.160333333333	0
bin	96.193666666667	0
bin	96.227	0
bin	96.260333333333	0
bin	96.293666666667	0
bin	96.327	0
bin	96.360333333333	0
bin	96.393666666667	0
bin	96.427	0
bin	96.460333333333	0
bin	96.493666666667	0
bin	96.527	0
bin	96.560333333333	0
bin	96.593666666667	0
bin	96.627	1
bin	96.660333333333	0
bin	96.693666666667	0
bin	96.727	0
bin	96.760333333333	0
bin	96.793666666667	0
bin	96.827	0
bin	96.860333333333	0
bin	96.893666666667	0
bin	96.927	0
bin	96.960333333333	0
bin	96.993666666667	0
bin	97.027	0
bin	97.060333333333	0
bin	97.093666666667	0
bin	97.127	0
statistic RandomGeometricGraph.rgnv[43] 	arrivalPerc:histogram
field count 1
field mean 1
field stddev nan
field sum 1
field sqrsum 1
field min 1
field max 1
attr interpolationmode  none
attr source  count(arrival)
attr title  "arrival perc, histogram"
bin	-INF	0
bin	0	0
bin	1	1
bin	2	0
statistic RandomGeometricGraph.rgnv[44] 	arrivalTime:histogram
field count 1
field mean 118.868
field stddev nan
field sum 118.868
field sqrsum 14129.601424
field min 118.868
field max 118.868
attr interpolationmode  none
attr source  arrivalTime
attr title  "arrival time, histogram"
bin	-INF	0
bin	118.368	0
bin	118.40133333333	0
bin	118.43466666667	0
bin	118.468	0
bin	118.50133333333	0
bin	118.53466666667	0
bin	118.568	0
bin	118.60133333333	0
bin	118.63466666667	0
bin	118.668	0
bin	118.70133333333	0
bin	118.73466666667	0
bin	118.768	0
bin	118.80133333333	0
bin	118.83466666667	0
bin	118.868	1
bin	118.90133333333	0
bin	118.93466666667	0
bin	118.968	0
bin	119.00133333333	0
bin	119.03466666667	0
bin	119.068	0
bin	119.10133333333	0
bin	119.13466666667	0
bin	119.168	0
bin	119.20133333333	0
bin	119.23466666667	0
bin	119.268	0
bin	119.30133333333	0
bin	119.33466666667	0
bin	119.368	0
statistic RandomGeometricGraph.rgnv[44] 	arrivalPerc:histogram
field count 1
field mean 1
field stddev nan
field sum 1
field sqrsum 1
field min 1
field max 1
attr interpolationmode  none
attr source  count(arrival)
attr title  "arrival perc, histogram"
bin	-INF	0
bin	0	0
bin	1	1
bin	2	0
statistic RandomGeometricGraph.rgnv[45] 	arrivalTime:histogram
field count 1
field mean 140.561
field stddev nan
field sum 140.561
field sqrsum 19757.394721
field min 140.561
field max 140.561
attr interpolationmode  none
attr source  arrivalTime
attr title  "arrival time, histogram"
bin	-INF	0
bin	140.061	0
bin	140.09433333333	0
bin	140.12766666667	0
bin	140.161	0
bin	140.19433333333	0
bin	140.22766666667	0
bin	140.261	0
bin	140.29433333333	0
bin	140.32766666667	0
bin	140.361	0
bin	140.39433333333	0
bin	140.42766666667	0
bin	140.461	0
bin	140.49433333333	0
bin	140.52766666667	0
bin	140.561	1
bin	140.59433333333	0
bin	140.62766666667	0
bin	140.661	0
bin	140.69433333333	0
bin	140.72766666667	0
bin	140.761	0
bin	140.79433333333	0
bin	140.82766666667	0
bin	140.861	0
bin	140.89433333333	0
bin	140.92766666667	0
bin	140.961	0
bin	140.99433333333	0
bin	141.02766666667	0
bin	141.061	0
statistic RandomGeometricGraph.rgnv[45] 	arrivalPerc:histogram
field count 1
field mean 1
field stddev nan
field sum 1
field sqrsum 1
field min 1
field max 1
attr interpolationmode  none
attr source  count(arrival)
attr title  "arrival perc, histogram"
bin	-INF	0
bin	0	0
bin	1	1
bin	2	0
statistic RandomGeometricGraph.rgnv[46] 	arrivalTime:histogram
field count 1
field mean 77.185
field stddev nan
field sum 77.185
field sqrsum 5957.524225
field min 77.185
field max 77.185
attr interpolationmode  none
attr source  arrivalTime
attr title  "arrival time, histogram"
bin	-INF	0
bin	76.685	0
bin	76.718333333333	0
bin	76.751666666667	0
bin	76.785	0
bin	76.818333333333	0
bin	76.851666666667	0
bin	76.885	0
bin	76.918333333333	0
bin	76.951666666667	0
bin	76.985	0
bin	77.018333333333	0
bin	77.051666666667	0
bin	77.085	0
bin	77.118333333333	0
bin	77.151666666667	0
bin	77.185	1
bin	77.218333333333	0
bin	77.251666666667	0
bin	77.285	0
bin	77.318333333333	0
bin	77.351666666667	0
bin	77.385	0
bin	77.418333333333	0
bin	77.451666666667	0
bin	77.485	0
bin	77.518333333333	0
bin	77.551666666667	0
bin	77.585	0
bin	77.618333333333	0
bin	77.651666666667	0
bin	77.685	0
statistic RandomGeometricGraph.rgnv[46] 	arrivalPerc:histogram
field count 1
field mean 1
field stddev nan
field sum 1
field sqrsum 1
field min 1
field max 1
attr interpolationmode  none
attr source  count(arrival)
attr title  "arrival perc, histogram"
bin	-INF	0
bin	0	0
bin	1	1
bin	2	0
statistic RandomGeometricGraph.rgnv[47] 	arrivalTime:histogram
field count 1
field mean 157.782
field stddev nan
field sum 157.782
field sqrsum 24895.159524
field min 157.782
field max 157.782
attr interpolationmode  none
attr source  arrivalTime
attr title  "arrival time, histogram"
bin	-INF	0
bin	157.282	0
bin	157.31533333333	0
bin	157.34866666667	0
bin	157.382	0
bin	157.41533333333	0
bin	157.44866666667	0
bin	157.482	0
bin	157.51533333333	0
bin	157.54866666667	0
bin	157.582	0
bin	157.61533333333	0
bin	157.64866666667	0
bin	157.682	0
bin	157.71533333333	0
bin	157.74866666667	0
bin	157.782	1
bin	157.81533333333	0
bin	157.84866666667	0
bin	157.882	0
bin	157.91533333333	0
bin	157.94866666667	0
bin	157.982	0
bin	158.01533333333	0
bin	158.04866666667	0
bin	158.082	0
bin	158.11533333333	0
bin	158.14866666667	0
bin	158.182	0
bin	158.21533333333	0
bin	158.24866666667	0
bin	158.282	0
statistic RandomGeometricGraph.rgnv[47] 	arrivalPerc:histogram
field count 1
field mean 1
field stddev nan
field sum 1
field sqrsum 1
field min 1
field max 1
attr interpolationmode  none
attr source  count(arrival)
attr title  "arrival perc, histogram"
bin	-INF	0
bin	0	0
bin	1	1
bin	2	0
statistic RandomGeometricGraph.rgnv[48] 	arrivalTime:histogram
field count 1
field mean 143.32
field stddev nan
field sum 143.32
field sqrsum 20540.6224
field min 143.32
field max 143.32
attr interpolationmode  none
attr source  arrivalTime
attr title  "arrival time, histogram"
bin	-INF	0
bin	142.82	0
bin	142.85333333333	0
bin	142.88666666667	0
bin	142.92	0
bin	142.95333333333	0
bin	142.98666666667	0
bin	143.02	0
bin	143.05333333333	0
bin	143.08666666667	0
bin	143.12	0
bin	143.15333333333	0
bin	143.18666666667	0
bin	143.22	0
bin	143.25333333333	0
bin	143.28666666667	0
bin	143.32	1
bin	143.35333333333	0
bin	143.38666666667	0
bin	143.42	0
bin	143.45333333333	0
bin	143.48666666667	0
bin	143.52	0
bin	143.55333333333	0
bin	143.58666666667	0
bin	143.62	0
bin	143.65333333333	0
bin	143.68666666667	0
bin	143.72	0
bin	143.75333333333	0
bin	143.78666666667	0
bin	143.82	0
statistic RandomGeometricGraph.rgnv[48] 	arrivalPerc:histogram
field count 1
field mean 1
field stddev nan
field sum 1
field sqrsum 1
field min 1
field max 1
attr interpolationmode  none
attr source  count(arrival)
attr title  "arrival perc, histogram"
bin	-INF	0
bin	0	0
bin	1	1
bin	2	0
statistic RandomGeometricGraph.rgnv[49] 	arrivalTime:histogram
field count 1
field mean 195.013
field stddev nan
field sum 195.013
field sqrsum 38030.070169
field min 195.013
field max 195.013
attr interpolationmode  none
attr source  arrivalTime
attr title  "arrival time, histogram"
bin	-INF	0
bin	194.513	0
bin	194.54633333333	0
bin	194.57966666667	0
bin	194.613	0
bin	194.64633333333	0
bin	194.67966666667	0
bin	194.713	0
bin	194.74633333333	0
bin	194.77966666667	0
bin	194.813	0
bin	194.84633333333	0
bin	194.87966666667	0
bin	194.913	0
bin	194.94633333333	0
bin	194.97966666667	0
bin	195.013	1
bin	195.04633333333	0
bin	195.07966666667	0
bin	195.113	0
bin	195.14633333333	0
bin	195.17966666667	0
bin	195.213	0
bin	195.24633333333	0
bin	195.27966666667	0
bin	195.313	0
bin	195.34633333333	0
bin	195.37966666667	0
bin	195.413	0
bin	195.44633333333	0
bin	195.47966666667	0
bin	195.513	0
statistic RandomGeometricGraph.rgnv[49] 	arrivalPerc:histogram
field count 1
field mean 1
field stddev nan
field sum 1
field sqrsum 1
field min 1
field max 1
attr interpolationmode  none
attr source  count(arrival)
attr title  "arrival perc, histogram"
bin	-INF	0
bin	0	0
bin	1	1
bin	2	0
statistic RandomGeometricGraph.rgnv[50] 	arrivalTime:histogram
field count 1
field mean 128.33
field stddev nan
field sum 128.33
field sqrsum 16468.5889
field min 128.33
field max 128.33
attr interpolationmode  none
attr source  arrivalTime
attr title  "arrival time, histogram"
bin	-INF	0
bin	127.83	0
bin	127.86333333333	0
bin	127.89666666667	0
bin	127.93	0
bin	127.96333333333	0
bin	127.99666666667	0
bin	128.03	0
bin	128.06333333333	0
bin	128.09666666667	0
bin	128.13	0
bin	128.16333333333	0
bin	128.19666666667	0
bin	128.23	0
bin	128.26333333333	0
bin	128.29666666667	0
bin	128.33	1
bin	128.36333333333	0
bin	128.39666666667	0
bin	128.43	0
bin	128.46333333333	0
bin	128.49666666667	0
bin	128.53	0
bin	128.56333333333	0
bin	128.59666666667	0
bin	128.63	0
bin	128.66333333333	0
bin	128.69666666667	0
bin	128.73	0
bin	128.76333333333	0
bin	128.79666666667	0
bin	128.83	0
statistic RandomGeometricGraph.rgnv[50] 	arrivalPerc:histogram
field count 1
field mean 1
field stddev nan
field sum 1
field sqrsum 1
field min 1
field max 1
attr interpolationmode  none
attr source  count(arrival)
attr title  "arrival perc, histogram"
bin	-INF	0
bin	0	0
bin	1	1
bin	2	0
statistic RandomGeometricGraph.rgnv[51] 	arrivalTime:histogram
field count 1
field mean 96.627
field stddev nan
field sum 96.627
field sqrsum 9336.777129
field min 96.627
field max 96.627
attr interpolationmode  none
attr source  arrivalTime
attr title  "arrival time, histogram"
bin	-INF	0
bin	96.127	0
bin	96.160333333333	0
bin	96.193666666667	0
bin	96.227	0
bin	96.260333333333	0
bin	96.293666666667	0
bin	96.327	0
bin	96.360333333333	0
bin	96.393666666667	0
bin	96.427	0
bin	96.460333333333	0
bin	96.493666666667	0
bin	96.527	0
bin	96.560333333333	0
bin	96.593666666667	0
bin	96.627	1
bin	96.660333333333	0
bin	96.693666666667	0
bin	96.727	0
bin	96.760333333333	0
bin	96.793666666667	0
bin	96.827	0
bin	96.860333333333	0
bin	96.893666666667	0
bin	96.927	0
bin	96.960333333333	0
bin	96.993666666667	0
bin	97.027	0
bin	97.060333333333	0
bin	97.093666666667	0
bin	97.127	0
statistic RandomGeometricGraph.rgnv[51] 	arrivalPerc:histogram
field count 1
field mean 1
field stddev nan
field sum 1
field sqrsum 1
field min 1
field max 1
attr interpolationmode  none
attr source  count(arrival)
attr title  "arrival perc, histogram"
bin	-INF	0
bin	0	0
bin	1	1
bin	2	0
statistic RandomGeometricGraph.rgnv[52] 	arrivalTime:histogram
field count 1
field mean 72.185
field stddev nan
field sum 72.185
field sqrsum 5210.674225
field min 72.185
field max 72.185
attr interpolationmode  none
attr source  arrivalTime
attr title  "arrival time, histogram"
bin	-INF	0
bin	71.685	0
bin	71.718333333333	0
bin	71.751666666667	0
bin	71.785	0
bin	71.818333333333	0
bin	71.851666666667	0
bin	71.885	0
bin	71.918333333333	0
bin	71.951666666667	0
bin	71.985	0
bin	72.018333333333	0
bin	72.051666666667	0
bin	72.085	0
bin	72.118333333333	0
bin	72.151666666667	0
bin	72.185	1
bin	72.218333333333	0
bin	72.251666666667	0
bin	72.285	0
bin	72.318333333333	0
bin	72.351666666667	0
bin	72.385	0
bin	72.418333333333	0
bin	72.451666666667	0
bin	72.485	0
bin	72.518333333333	0
bin	72.551666666667	0
bin	72.585	0
bin	72.618333333333	0
bin	72.651666666667	0
bin	72.685	0
statistic RandomGeometricGraph.rgnv[52] 	arrivalPerc:histogram
field count 1
field mean 1
field stddev nan
field sum 1
field sqrsum 1
field min 1
field max 1
attr interpolationmode  none
attr source  count(arrival)
attr title  "arrival perc, histogram"
bin	-INF	0
bin	0	0
bin	1	1
bin	2	0
statistic RandomGeometricGraph.rgnv[53] 	arrivalTime:histogram
field count 1
field mean 118.878
field stddev nan
field sum 118.878
field sqrsum 14131.978884
field min 118.878
field max 118.878
attr interpolationmode  none
attr source  arrivalTime
attr title  "arrival time, histogram"
bin	-INF	0
bin	118.378	0
bin	118.41133333333	0
bin	118.44466666667	0
bin	118.478	0
bin	118.51133333333	0
bin	118.54466666667	0
bin	118.578	0
bin	118.61133333333	0
bin	118.64466666667	0
bin	118.678	0
bin	118.71133333333	0
bin	118.74466666667	0
bin	118.778	0
bin	118.81133333333	0
bin	118.84466666667	0
bin	118.878	1
bin	118.91133333333	0
bin	118.94466666667	0
bin	118.978	0
bin	119.01133333333	0
bin	119.04466666667	0
bin	119.078	0
bin	119.11133333333	0
bin	119.14466666667	0
bin	119.178	0
bin	119.21133333333	0
bin	119.24466666667	0
bin	119.278	0
bin	119.31133333333	0
bin	119.34466666667	0
bin	119.378	0
statistic RandomGeometricGraph.rgnv[53] 	arrivalPerc:histogram
field count 1
field mean 1
field stddev nan
field sum 1
field sqrsum 1
field min 1
field max 1
attr interpolationmode  none
attr source  count(arrival)
attr title  "arrival perc, histogram"
bin	-INF	0
bin	0	0
bin	1	1
bin	2	0
statistic RandomGeometricGraph.rgnv[54] 	arrivalTime:histogram
field count 1
field mean 161.099
field stddev nan
field sum 161.099
field sqrsum 25952.887801
field min 161.099
field max 161.099
attr interpolationmode  none
attr source  arrivalTime
attr title  "arrival time, histogram"
bin	-INF	0
bin	160.599	0
bin	160.63233333333	0
bin	160.66566666667	0
bin	160.699	0
bin	160.73233333333	0
bin	160.76566666667	0
bin	160.799	0
bin	160.83233333333	0
bin	160.86566666667	0
bin	160.899	0
bin	160.93233333333	0
bin	160.96566666667	0
bin	160.999	0
bin	161.03233333333	0
bin	161.06566666667	0
bin	161.099	1
bin	161.13233333333	0
bin	161.16566666667	0
bin	161.199	0
bin	161.23233333333	0
bin	161.26566666667	0
bin	161.299	0
bin	161.33233333333	0
bin	161.36566666667	0
bin	161.399	0
bin	161.43233333333	0
bin	161.46566666667	0
bin	161.499	0
bin	161.53233333333	0
bin	161.56566666667	0
bin	161.599	0
statistic RandomGeometricGraph.rgnv[54] 	arrivalPerc:histogram
field count 1
field mean 1
field stddev nan
field sum 1
field sqrsum 1
field min 1
field max 1
attr interpolationmode  none
attr source  count(arrival)
attr title  "arrival perc, histogram"
bin	-INF	0
bin	0	0
bin	1	1
bin	2	0
statistic RandomGeometricGraph.rgnv[55] 	arrivalTime:histogram
field count 1
field mean 121.089
field stddev nan
field sum 121.089
field sqrsum 14662.545921
field min 121.089
field max 121.089
attr interpolationmode  none
attr source  arrivalTime
attr title  "arrival time, histogram"
bin	-INF	0
bin	120.589	0
bin	120.62233333333	0
bin	120.65566666667	0
bin	120.689	0
bin	120.72233333333	0
bin	120.75566666667	0
bin	120.789	0
bin	120.82233333333	0
bin	120.85566666667	0
bin	120.889	0
bin	120.92233333333	0
bin	120.95566666667	0
bin	120.989	0
bin	121.02233333333	0
bin	121.05566666667	0
bin	121.089	1
bin	121.12233333333	0
bin	121.15566666667	0
bin	121.189	0
bin	121.22233333333	0
bin	121.25566666667	0
bin	121.289	0
bin	121.32233333333	0
bin	121.35566666667	0
bin	121.389	0
bin	121.42233333333	0
bin	121.45566666667	0
bin	121.489	0
bin	121.52233333333	0
bin	121.55566666667	0
bin	121.589	0
statistic RandomGeometricGraph.rgnv[55] 	arrivalPerc:histogram
field count 1
field mean 1
field stddev nan
field sum 1
field sqrsum 1
field min 1
field max 1
attr interpolationmode  none
attr source  count(arrival)
attr title  "arrival perc, histogram"
bin	-INF	0
bin	0	0
bin	1	1
bin	2	0
statistic RandomGeometricGraph.rgnv[56] 	arrivalTime:histogram
field count 1
field mean 131.099
field stddev nan
field sum 131.099
field sqrsum 17186.947801
field min 131.099
field max 131.099
attr interpolationmode  none
attr source  arrivalTime
attr title  "arrival time, histogram"
bin	-INF	0
bin	130.599	0
bin	130.63233333333	0
bin	130.66566666667	0
bin	130.699	0
bin	130.73233333333	0
bin	130.76566666667	0
bin	130.799	0
bin	130.83233333333	0
bin	130.86566666667	0
bin	130.899	0
bin	130.93233333333	0
bin	130.96566666667	0
bin	130.999	0
bin	131.03233333333	0
bin	131.06566666667	0
bin	131.099	1
bin	131.13233333333	0
bin	131.16566666667	0
bin	131.199	0
bin	131.23233333333	0
bin	131.26566666667	0
bin	131.299	0
bin	131.33233333333	0
bin	131.36566666667	0
bin	131.399	0
bin	131.43233333333	0
bin	131.46566666667	0
bin	131.499	0
bin	131.53233333333	0
bin	131.56566666667	0
bin	131.599	0
statistic RandomGeometricGraph.rgnv[56] 	arrivalPerc:histogram
field count 1
field mean 1
field stddev nan
field sum 1
field sqrsum 1
field min 1
field max 1
attr interpolationmode  none
attr source  count(arrival)
attr title  "arrival perc, histogram"
bin	-INF	0
bin	0	0
bin	1	1
bin	2	0
statistic RandomGeometricGraph.rgnv[57] 	arrivalTime:histogram
field count 1
field mean 187.234
field stddev nan
field sum 187.234
field sqrsum 35056.570756
field min 187.234
field max 187.234
attr interpolationmode  none
attr source  arrivalTime
attr title  "arrival time, histogram"
bin	-INF	0
bin	186.734	0
bin	186.76733333333	0
bin	186.80066666667	0
bin	186.834	0
bin	186.86733333333	0
bin	186.90066666667	0
bin	186.934	0
bin	186.96733333333	0
bin	187.00066666667	0
bin	187.034	0
bin	187.06733333333	0
bin	187.10066666667	0
bin	187.134	0
bin	187.16733333333	0
bin	187.20066666667	0
bin	187.234	1
bin	187.26733333333	0
bin	187.30066666667	0
bin	187.334	0
bin	187.36733333333	0
bin	187.40066666667	0
bin	187.434	0
bin	187.46733333333	0
bin	187.50066666667	0
bin	187.534	0
bin	187.56733333333	0
bin	187.60066666667	0
bin	187.634	0
bin	187.66733333333	0
bin	187.70066666667	0
bin	187.734	0
statistic RandomGeometricGraph.rgnv[57] 	arrivalPerc:histogram
field count 1
field mean 1
field stddev nan
field sum 1
field sqrsum 1
field min 1
field max 1
attr interpolationmode  none
attr source  count(arrival)
attr title  "arrival perc, histogram"
bin	-INF	0
bin	0	0
bin	1	1
bin	2	0
statistic RandomGeometricGraph.rgnv[58] 	arrivalTime:histogram
field count 1
field mean 54.944
field stddev nan
field sum 54.944
field sqrsum 3018.843136
field min 54.944
field max 54.944
attr interpolationmode  none
attr source  arrivalTime
attr title  "arrival time, histogram"
bin	-INF	0
bin	54.444	0
bin	54.477333333333	0
bin	54.510666666667	0
bin	54.544	0
bin	54.577333333333	0
bin	54.610666666667	0
bin	54.644	0
bin	54.677333333333	0
bin	54.710666666667	0
bin	54.744	0
bin	54.777333333333	0
bin	54.810666666667	0
bin	54.844	0
bin	54.877333333333	0
bin	54.910666666667	0
bin	54.944	1
bin	54.977333333333	0
bin	55.010666666667	0
bin	55.044	0
bin	55.077333333333	0
bin	55.110666666667	0
bin	55.144	0
bin	55.177333333333	0
bin	55.210666666667	0
bin	55.244	0
bin	55.277333333333	0
bin	55.310666666667	0
bin	55.344	0
bin	55.377333333333	0
bin	55.410666666667	0
bin	55.444	0
statistic RandomGeometricGraph.rgnv[58] 	arrivalPerc:histogram
field count 1
field mean 1
field stddev nan
field sum 1
field sqrsum 1
field min 1
field max 1
attr interpolationmode  none
attr source  count(arrival)
attr title  "arrival perc, histogram"
bin	-INF	0
bin	0	0
bin	1	1
bin	2	0
statistic RandomGeometricGraph.rgnv[59] 	arrivalTime:histogram
field count 1
field mean 77.195
field stddev nan
field sum 77.195
field sqrsum 5959.068025
field min 77.195
field max 77.195
attr interpolationmode  none
attr source  arrivalTime
attr title  "arrival time, histogram"
bin	-INF	0
bin	76.695	0
bin	76.728333333333	0
bin	76.761666666667	0
bin	76.795	0
bin	76.828333333333	0
bin	76.861666666667	0
bin	76.895	0
bin	76.928333333333	0
bin	76.961666666667	0
bin	76.995	0
bin	77.028333333333	0
bin	77.061666666667	0
bin	77.095	0
bin	77.128333333333	0
bin	77.161666666667	0
bin	77.195	1
bin	77.228333333333	0
bin	77.261666666667	0
bin	77.295	0
bin	77.328333333333	0
bin	77.361666666667	0
bin	77.395	0
bin	77.428333333333	0
bin	77.461666666667	0
bin	77.495	0
bin	77.528333333333	0
bin	77.561666666667	0
bin	77.595	0
bin	77.628333333333	0
bin	77.661666666667	0
bin	77.695	0
statistic RandomGeometricGraph.rgnv[59] 	arrivalPerc:histogram
field count 1
field mean 1
field stddev nan
field sum 1
field sqrsum 1
field min 1
field max 1
attr interpolationmode  none
attr source  count(arrival)
attr title  "arrival perc, histogram"
bin	-INF	0
bin	0	0
bin	1	1
bin	2	0
statistic RandomGeometricGraph.rgnv[60] 	arrivalTime:histogram
field count 1
field mean 89.406
field stddev nan
field sum 89.406
field sqrsum 7993.432836
field min 89.406
field max 89.406
attr interpolationmode  none
attr source  arrivalTime
attr title  "arrival time, histogram"
bin	-INF	0
bin	88.906	0
bin	88.939333333333	0
bin	88.972666666667	0
bin	89.006	0
bin	89.039333333333	0
bin	89.072666666667	0
bin	89.106	0
bin	89.139333333333	0
bin	89.172666666667	0
bin	89.206	0
bin	89.239333333333	0
bin	89.272666666667	0
bin	89.306	0
bin	89.339333333333	0
bin	89.372666666667	0
bin	89.406	1
bin	89.439333333333	0
bin	89.472666666667	0
bin	89.506	0
bin	89.539333333333	0
bin	89.572666666667	0
bin	89.606	0
bin	89.639333333333	0
bin	89.672666666667	0
bin	89.706	0
bin	89.739333333333	0
bin	89.772666666667	0
bin	89.806	0
bin	89.839333333333	0
bin	89.872666666667	0
bin	89.906	0
statistic RandomGeometricGraph.rgnv[60] 	arrivalPerc:histogram
field count 1
field mean 1
field stddev nan
field sum 1
field sqrsum 1
field min 1
field max 1
attr interpolationmode  none
attr source  count(arrival)
attr title  "arrival perc, histogram"
bin	-INF	0
bin	0	0
bin	1	1
bin	2	0
statistic RandomGeometricGraph.rgnv[61] 	arrivalTime:histogram
field count 1
field mean 49.924
field stddev nan
field sum 49.924
field sqrsum 2492.405776
field min 49.924
field max 49.924
attr interpolationmode  none
attr source  arrivalTime
attr title  "arrival time, histogram"
bin	-INF	0
bin	49.424	0
bin	49.457333333333	0
bin	49.490666666667	0
bin	49.524	0
bin	49.557333333333	0
bin	49.590666666667	0
bin	49.624	0
bin	49.657333333333	0
bin	49.690666666667	0
bin	49.724	0
bin	49.757333333333	0
bin	49.790666666667	0
bin	49.824	0
bin	49.857333333333	0
bin	49.890666666667	0
bin	49.924	1
bin	49.957333333333	0
bin	49.990666666667	0
bin	50.024	0
bin	50.057333333333	0
bin	50.090666666667	0
bin	50.124	0
bin	50.157333333333	0
bin	50.190666666667	0
bin	50.224	0
bin	50.257333333333	0
bin	50.290666666667	0
bin	50.324	0
bin	50.357333333333	0
bin	50.390666666667	0
bin	50.424	0
statistic RandomGeometricGraph.rgnv[61] 	arrivalPerc:histogram
field count 1
field mean 1
field stddev nan
field sum 1
field sqrsum 1
field min 1
field max 1
attr interpolationmode  none
attr source  count(arrival)
attr title  "arrival perc, histogram"
bin	-INF	0
bin	0	0
bin	1	1
bin	2	0
statistic RandomGeometricGraph.rgnv[62] 	arrivalTime:histogram
field count 1
field mean 143.868
field stddev nan
field sum 143.868
field sqrsum 20698.001424
field min 143.868
field max 143.868
attr interpolationmode  none
attr source  arrivalTime
attr title  "arrival time, histogram"
bin	-INF	0
bin	143.368	0
bin	143.40133333333	0
bin	143.43466666667	0
bin	143.468	0
bin	143.50133333333	0
bin	143.53466666667	0
bin	143.568	0
bin	143.60133333333	0
bin	143.63466666667	0
bin	143.668	0
bin	143.70133333333	0
bin	143.73466666667	0
bin	143.768	0
bin	143.80133333333	0
bin	143.83466666667	0
bin	143.868	1
bin	143.90133333333	0
bin	143.93466666667	0
bin	143.968	0
bin	144.00133333333	0
bin	144.03466666667	0
bin	144.068	0
bin	144.10133333333	0
bin	144.13466666667	0
bin	144.168	0
bin	144.20133333333	0
bin	144.23466666667	0
bin	144.268	0
bin	144.30133333333	0
bin	144.33466666667	0
bin	144.368	0
statistic RandomGeometricGraph.rgnv[62] 	arrivalPerc:histogram
field count 1
field mean 1
field stddev nan
field sum 1
field sqrsum 1
field min 1
field max 1
attr interpolationmode  none
attr source  count(arrival)
attr title  "arrival perc, histogram"
bin	-INF	0
bin	0	0
bin	1	1
bin	2	0
statistic RandomGeometricGraph.rgnv[63] 	arrivalTime:histogram
field count 1
field mean 165.561
field stddev nan
field sum 165.561
field sqrsum 27410.444721
field min 165.561
field max 165.561
attr interpolationmode  none
attr source  arrivalTime
attr title  "arrival time, histogram"
bin	-INF	0
bin	165.061	0
bin	165.09433333333	0
bin	165.12766666667	0
bin	165.161	0
bin	165.19433333333	0
bin	165.22766666667	0
bin	165.261	0
bin	165.29433333333	0
bin	165.32766666667	0
bin	165.361	0
bin	165.39433333333	0
bin	165.42766666667	0
bin	165.461	0
bin	165.49433333333	0
bin	165.52766666667	0
bin	165.561	1
bin	165.59433333333	0
bin	165.62766666667	0
bin	165.661	0
bin	165.69433333333	0
bin	165.72766666667	0
bin	165.761	0
bin	165.79433333333	0
bin	165.82766666667	0
bin	165.861	0
bin	165.89433333333	0
bin	165.92766666667	0
bin	165.961	0
bin	165.99433333333	0
bin	166.02766666667	0
bin	166.061	0
statistic RandomGeometricGraph.rgnv[63] 	arrivalPerc:histogram
field count 1
field mean 1
field stddev nan
field sum 1
field sqrsum 1
field min 1
field max 1
attr interpolationmode  none
attr source  count(arrival)
attr title  "arrival perc, histogram"
bin	-INF	0
bin	0	0
bin	1	1
bin	2	0
statistic RandomGeometricGraph.rgnv[64] 	arrivalTime:histogram
field count 1
field mean 62.155
field stddev nan
field sum 62.155
field sqrsum 3863.244025
field min 62.155
field max 62.155
attr interpolationmode  none
attr source  arrivalTime
attr title  "arrival time, histogram"
bin	-INF	0
bin	61.655	0
bin	61.688333333333	0
bin	61.721666666667	0
bin	61.755	0
bin	61.788333333333	0
bin	61.821666666667	0
bin	61.855	0
bin	61.888333333333	0
bin	61.921666666667	0
bin	61.955	0
bin	61.988333333333	0
bin	62.021666666667	0
bin	62.055	0
bin	62.088333333333	0
bin	62.121666666667	0
bin	62.155	1
bin	62.188333333333	0
bin	62.221666666667	0
bin	62.255	0
bin	62.288333333333	0
bin	62.321666666667	0
bin	62.355	0
bin	62.388333333333	0
bin	62.421666666667	0
bin	62.455	0
bin	62.488333333333	0
bin	62.521666666667	0
bin	62.555	0
bin	62.588333333333	0
bin	62.621666666667	0
bin	62.655	0
statistic RandomGeometricGraph.rgnv[64] 	arrivalPerc:histogram
field count 1
field mean 1
field stddev nan
field sum 1
field sqrsum 1
field min 1
field max 1
attr interpolationmode  none
attr source  count(arrival)
attr title  "arrival perc, histogram"
bin	-INF	0
bin	0	0
bin	1	1
bin	2	0
statistic RandomGeometricGraph.rgnv[65] 	arrivalTime:histogram
field count 1
field mean 158.878
field stddev nan
field sum 158.878
field sqrsum 25242.218884
field min 158.878
field max 158.878
attr interpolationmode  none
attr source  arrivalTime
attr title  "arrival time, histogram"
bin	-INF	0
bin	158.378	0
bin	158.41133333333	0
bin	158.44466666667	0
bin	158.478	0
bin	158.51133333333	0
bin	158.54466666667	0
bin	158.578	0
bin	158.61133333333	0
bin	158.64466666667	0
bin	158.678	0
bin	158.71133333333	0
bin	158.74466666667	0
bin	158.778	0
bin	158.81133333333	0
bin	158.84466666667	0
bin	158.878	1
bin	158.91133333333	0
bin	158.94466666667	0
bin	158.978	0
bin	159.01133333333	0
bin	159.04466666667	0
bin	159.078	0
bin	159.11133333333	0
bin	159.14466666667	0
bin	159.178	0
bin	159.21133333333	0
bin	159.24466666667	0
bin	159.278	0
bin	159.31133333333	0
bin	159.34466666667	0
bin	159.378	0
statistic RandomGeometricGraph.rgnv[65] 	arrivalPerc:histogram
field count 1
field mean 1
field stddev nan
field sum 1
field sqrsum 1
field min 1
field max 1
attr interpolationmode  none
attr source  count(arrival)
attr title  "arrival perc, histogram"
bin	-INF	0
bin	0	0
bin	1	1
bin	2	0
statistic RandomGeometricGraph.rgnv[66] 	arrivalTime:histogram
field count 1
field mean 72.175
field stddev nan
field sum 72.175
field sqrsum 5209.230625
field min 72.175
field max 72.175
attr interpolationmode  none
attr source  arrivalTime
attr title  "arrival time, histogram"
bin	-INF	0
bin	71.675	0
bin	71.708333333333	0
bin	71.741666666667	0
bin	71.775	0
bin	71.808333333333	0
bin	71.841666666667	0
bin	71.875	0
bin	71.908333333333	0
bin	71.941666666667	0
bin	71.975	0
bin	72.008333333333	0
bin	72.041666666667	0
bin	72.075	0
bin	72.108333333333	0
bin	72.141666666667	0
bin	72.175	1
bin	72.208333333333	0
bin	72.241666666667	0
bin	72.275	0
bin	72.308333333333	0
bin	72.341666666667	0
bin	72.375	0
bin	72.408333333333	0
bin	72.441666666667	0
bin	72.475	0
bin	72.508333333333	0
bin	72.541666666667	0
bin	72.575	0
bin	72.608333333333	0
bin	72.641666666667	0
bin	72.675	0
statistic RandomGeometricGraph.rgnv[66] 	arrivalPerc:histogram
field count 1
field mean 1
field stddev nan
field sum 1
field sqrsum 1
field min 1
field max 1
[...]
bin	-INF	0
bin	0	0
bin	1	1
bin	2	0
statistic RandomGeometricGraph.rgnv[183] 	arrivalTime:histogram
field count 1
field mean 79.406
field stddev nan
field sum 79.406
field sqrsum 6305.312836
field min 79.406
field max 79.406
attr interpolationmode  none
attr source  arrivalTime
attr title  "arrival time, histogram"
bin	-INF	0
bin	78.906	0
bin	78.939333333333	0
bin	78.972666666667	0
bin	79.006	0
bin	79.039333333333	0
bin	79.072666666667	0
bin	79.106	0
bin	79.139333333333	0
bin	79.172666666667	0
bin	79.206	0
bin	79.239333333333	0
bin	79.272666666667	0
bin	79.306	0
bin	79.339333333333	0
bin	79.372666666667	0
bin	79.406	1
bin	79.439333333333	0
bin	79.472666666667	0
bin	79.506	0
bin	79.539333333333	0
bin	79.572666666667	0
bin	79.606	0
bin	79.639333333333	0
bin	79.672666666667	0
bin	79.706	0
bin	79.739333333333	0
bin	79.772666666667	0
bin	79.806	0
bin	79.839333333333	0
bin	79.872666666667	0
bin	79.906	0
statistic RandomGeometricGraph.rgnv[183] 	arrivalPerc:histogram
field count 1
field mean 1
field stddev nan
field sum 1
field sqrsum 1
field min 1
field max 1
attr interpolationmode  none
attr source  count(arrival)
attr title  "arrival perc, histogram"
bin	-INF	0
bin	0	0
bin	1	1
bin	2	0
statistic RandomGeometricGraph.rgnv[184] 	arrivalTime:histogram
field count 1
field mean 180.023
field stddev nan
field sum 180.023
field sqrsum 32408.280529
field min 180.023
field max 180.023
attr interpolationmode  none
attr source  arrivalTime
attr title  "arrival time, histogram"
bin	-INF	0
bin	179.523	0
bin	179.55633333333	0
bin	179.58966666667	0
bin	179.623	0
bin	179.65633333333	0
bin	179.68966666667	0
bin	179.723	0
bin	179.75633333333	0
bin	179.78966666667	0
bin	179.823	0
bin	179.85633333333	0
bin	179.88966666667	0
bin	179.923	0
bin	179.95633333333	0
bin	179.98966666667	0
bin	180.023	1
bin	180.05633333333	0
bin	180.08966666667	0
bin	180.123	0
bin	180.15633333333	0
bin	180.18966666667	0
bin	180.223	0
bin	180.25633333333	0
bin	180.28966666667	0
bin	180.323	0
bin	180.35633333333	0
bin	180.38966666667	0
bin	180.423	0
bin	180.45633333333	0
bin	180.48966666667	0
bin	180.523	0
statistic RandomGeometricGraph.rgnv[184] 	arrivalPerc:histogram
field count 1
field mean 1
field stddev nan
field sum 1
field sqrsum 1
field min 1
field max 1
attr interpolationmode  none
attr source  count(arrival)
attr title  "arrival perc, histogram"
bin	-INF	0
bin	0	0
bin	1	1
bin	2	0
statistic RandomGeometricGraph.rgnv[185] 	arrivalTime:histogram
field count 1
field mean 180.023
field stddev nan
field sum 180.023
field sqrsum 32408.280529
field min 180.023
field max 180.023
attr interpolationmode  none
attr source  arrivalTime
attr title  "arrival time, histogram"
bin	-INF	0
bin	179.523	0
bin	179.55633333333	0
bin	179.58966666667	0
bin	179.623	0
bin	179.65633333333	0
bin	179.68966666667	0
bin	179.723	0
bin	179.75633333333	0
bin	179.78966666667	0
bin	179.823	0
bin	179.85633333333	0
bin	179.88966666667	0
bin	179.923	0
bin	179.95633333333	0
bin	179.98966666667	0
bin	180.023	1
bin	180.05633333333	0
bin	180.08966666667	0
bin	180.123	0
bin	180.15633333333	0
bin	180.18966666667	0
bin	180.223	0
bin	180.25633333333	0
bin	180.28966666667	0
bin	180.323	0
bin	180.35633333333	0
bin	180.38966666667	0
bin	180.423	0
bin	180.45633333333	0
bin	180.48966666667	0
bin	180.523	0
statistic RandomGeometricGraph.rgnv[185] 	arrivalPerc:histogram
field count 1
field mean 1
field stddev nan
field sum 1
field sqrsum 1
field min 1
field max 1
attr interpolationmode  none
attr source  count(arrival)
attr title  "arrival perc, histogram"
bin	-INF	0
bin	0	0
bin	1	1
bin	2	0
statistic RandomGeometricGraph.rgnv[186] 	arrivalTime:histogram
field count 1
field mean 89.416
field stddev nan
field sum 89.416
field sqrsum 7995.221056
field min 89.416
field max 89.416
attr interpolationmode  none
attr source  arrivalTime
attr title  "arrival time, histogram"
bin	-INF	0
bin	88.916	0
bin	88.949333333333	0
bin	88.982666666667	0
bin	89.016	0
bin	89.049333333333	0
bin	89.082666666667	0
bin	89.116	0
bin	89.149333333333	0
bin	89.182666666667	0
bin	89.216	0
bin	89.249333333333	0
bin	89.282666666667	0
bin	89.316	0
bin	89.349333333333	0
bin	89.382666666667	0
bin	89.416	1
bin	89.449333333333	0
bin	89.482666666667	0
bin	89.516	0
bin	89.549333333333	0
bin	89.582666666667	0
bin	89.616	0
bin	89.649333333333	0
bin	89.682666666667	0
bin	89.716	0
bin	89.749333333333	0
bin	89.782666666667	0
bin	89.816	0
bin	89.849333333333	0
bin	89.882666666667	0
bin	89.916	0
statistic RandomGeometricGraph.rgnv[186] 	arrivalPerc:histogram
field count 1
field mean 1
field stddev nan
field sum 1
field sqrsum 1
field min 1
field max 1
attr interpolationmode  none
attr source  count(arrival)
attr title  "arrival perc, histogram"
bin	-INF	0
bin	0	0
bin	1	1
bin	2	0
statistic RandomGeometricGraph.rgnv[187] 	arrivalTime:histogram
field count 1
field mean 89.416
field stddev nan
field sum 89.416
field sqrsum 7995.221056
field min 89.416
field max 89.416
attr interpolationmode  none
attr source  arrivalTime
attr title  "arrival time, histogram"
bin	-INF	0
bin	88.916	0
bin	88.949333333333	0
bin	88.982666666667	0
bin	89.016	0
bin	89.049333333333	0
bin	89.082666666667	0
bin	89.116	0
bin	89.149333333333	0
bin	89.182666666667	0
bin	89.216	0
bin	89.249333333333	0
bin	89.282666666667	0
bin	89.316	0
bin	89.349333333333	0
bin	89.382666666667	0
bin	89.416	1
bin	89.449333333333	0
bin	89.482666666667	0
bin	89.516	0
bin	89.549333333333	0
bin	89.582666666667	0
bin	89.616	0
bin	89.649333333333	0
bin	89.682666666667	0
bin	89.716	0
bin	89.749333333333	0
bin	89.782666666667	0
bin	89.816	0
bin	89.849333333333	0
bin	89.882666666667	0
bin	89.916	0
statistic RandomGeometricGraph.rgnv[187] 	arrivalPerc:histogram
field count 1
field mean 1
field stddev nan
field sum 1
field sqrsum 1
field min 1
field max 1
attr interpolationmode  none
attr source  count(arrival)
attr title  "arrival perc, histogram"
bin	-INF	0
bin	0	0
bin	1	1
bin	2	0
statistic RandomGeometricGraph.rgnv[188] 	arrivalTime:histogram
field count 1
field mean 126.637
field stddev nan
field sum 126.637
field sqrsum 16036.929769
field min 126.637
field max 126.637
attr interpolationmode  none
attr source  arrivalTime
attr title  "arrival time, histogram"
bin	-INF	0
bin	126.137	0
bin	126.17033333333	0
bin	126.20366666667	0
bin	126.237	0
bin	126.27033333333	0
bin	126.30366666667	0
bin	126.337	0
bin	126.37033333333	0
bin	126.40366666667	0
bin	126.437	0
bin	126.47033333333	0
bin	126.50366666667	0
bin	126.537	0
bin	126.57033333333	0
bin	126.60366666667	0
bin	126.637	1
bin	126.67033333333	0
bin	126.70366666667	0
bin	126.737	0
bin	126.77033333333	0
bin	126.80366666667	0
bin	126.837	0
bin	126.87033333333	0
bin	126.90366666667	0
bin	126.937	0
bin	126.97033333333	0
bin	127.00366666667	0
bin	127.037	0
bin	127.07033333333	0
bin	127.10366666667	0
bin	127.137	0
statistic RandomGeometricGraph.rgnv[188] 	arrivalPerc:histogram
field count 1
field mean 1
field stddev nan
field sum 1
field sqrsum 1
field min 1
field max 1
attr interpolationmode  none
attr source  count(arrival)
attr title  "arrival perc, histogram"
bin	-INF	0
bin	0	0
bin	1	1
bin	2	0
statistic RandomGeometricGraph.rgnv[189] 	arrivalTime:histogram
field count 1
field mean 113.858
field stddev nan
field sum 113.858
field sqrsum 12963.644164
field min 113.858
field max 113.858
attr interpolationmode  none
attr source  arrivalTime
attr title  "arrival time, histogram"
bin	-INF	0
bin	113.358	0
bin	113.39133333333	0
bin	113.42466666667	0
bin	113.458	0
bin	113.49133333333	0
bin	113.52466666667	0
bin	113.558	0
bin	113.59133333333	0
bin	113.62466666667	0
bin	113.658	0
bin	113.69133333333	0
bin	113.72466666667	0
bin	113.758	0
bin	113.79133333333	0
bin	113.82466666667	0
bin	113.858	1
bin	113.89133333333	0
bin	113.92466666667	0
bin	113.958	0
bin	113.99133333333	0
bin	114.02466666667	0
bin	114.058	0
bin	114.09133333333	0
bin	114.12466666667	0
bin	114.158	0
bin	114.19133333333	0
bin	114.22466666667	0
bin	114.258	0
bin	114.29133333333	0
bin	114.32466666667	0
bin	114.358	0
statistic RandomGeometricGraph.rgnv[189] 	arrivalPerc:histogram
field count 1
field mean 1
field stddev nan
field sum 1
field sqrsum 1
field min 1
field max 1
attr interpolationmode  none
attr source  count(arrival)
attr title  "arrival perc, histogram"
bin	-INF	0
bin	0	0
bin	1	1
bin	2	0
statistic RandomGeometricGraph.rgnv[190] 	arrivalTime:histogram
field count 1
field mean 148.32
field stddev nan
field sum 148.32
field sqrsum 21998.8224
field min 148.32
field max 148.32
attr interpolationmode  none
attr source  arrivalTime
attr title  "arrival time, histogram"
bin	-INF	0
bin	147.82	0
bin	147.85333333333	0
bin	147.88666666667	0
bin	147.92	0
bin	147.95333333333	0
bin	147.98666666667	0
bin	148.02	0
bin	148.05333333333	0
bin	148.08666666667	0
bin	148.12	0
bin	148.15333333333	0
bin	148.18666666667	0
bin	148.22	0
bin	148.25333333333	0
bin	148.28666666667	0
bin	148.32	1
bin	148.35333333333	0
bin	148.38666666667	0
bin	148.42	0
bin	148.45333333333	0
bin	148.48666666667	0
bin	148.52	0
bin	148.55333333333	0
bin	148.58666666667	0
bin	148.62	0
bin	148.65333333333	0
bin	148.68666666667	0
bin	148.72	0
bin	148.75333333333	0
bin	148.78666666667	0
bin	148.82	0
statistic RandomGeometricGraph.rgnv[190] 	arrivalPerc:histogram
field count 1
field mean 1
field stddev nan
field sum 1
field sqrsum 1
field min 1
field max 1
attr interpolationmode  none
attr source  count(arrival)
attr title  "arrival perc, histogram"
bin	-INF	0
bin	0	0
bin	1	1
bin	2	0
statistic RandomGeometricGraph.rgnv[191] 	arrivalTime:histogram
field count 1
field mean 136.099
field stddev nan
field sum 136.099
field sqrsum 18522.937801
field min 136.099
field max 136.099
attr interpolationmode  none
attr source  arrivalTime
attr title  "arrival time, histogram"
bin	-INF	0
bin	135.599	0
bin	135.63233333333	0
bin	135.66566666667	0
bin	135.699	0
bin	135.73233333333	0
bin	135.76566666667	0
bin	135.799	0
bin	135.83233333333	0
bin	135.86566666667	0
bin	135.899	0
bin	135.93233333333	0
bin	135.96566666667	0
bin	135.999	0
bin	136.03233333333	0
bin	136.06566666667	0
bin	136.099	1
bin	136.13233333333	0
bin	136.16566666667	0
bin	136.199	0
bin	136.23233333333	0
bin	136.26566666667	0
bin	136.299	0
bin	136.33233333333	0
bin	136.36566666667	0
bin	136.399	0
bin	136.43233333333	0
bin	136.46566666667	0
bin	136.499	0
bin	136.53233333333	0
bin	136.56566666667	0
bin	136.599	0
statistic RandomGeometricGraph.rgnv[191] 	arrivalPerc:histogram
field count 1
field mean 1
field stddev nan
field sum 1
field sqrsum 1
field min 1
field max 1
attr interpolationmode  none
attr source  count(arrival)
attr title  "arrival perc, histogram"
bin	-INF	0
bin	0	0
bin	1	1
bin	2	0
statistic RandomGeometricGraph.rgnv[192] 	arrivalTime:histogram
field count 1
field mean 116.089
field stddev nan
field sum 116.089
field sqrsum 13476.655921
field min 116.089
field max 116.089
attr interpolationmode  none
attr source  arrivalTime
attr title  "arrival time, histogram"
bin	-INF	0
bin	115.589	0
bin	115.62233333333	0
bin	115.65566666667	0
bin	115.689	0
bin	115.72233333333	0
bin	115.75566666667	0
bin	115.789	0
bin	115.82233333333	0
bin	115.85566666667	0
bin	115.889	0
bin	115.92233333333	0
bin	115.95566666667	0
bin	115.989	0
bin	116.02233333333	0
bin	116.05566666667	0
bin	116.089	1
bin	116.12233333333	0
bin	116.15566666667	0
bin	116.189	0
bin	116.22233333333	0
bin	116.25566666667	0
bin	116.289	0
bin	116.32233333333	0
bin	116.35566666667	0
bin	116.389	0
bin	116.42233333333	0
bin	116.45566666667	0
bin	116.489	0
bin	116.52233333333	0
bin	116.55566666667	0
bin	116.589	0
statistic RandomGeometricGraph.rgnv[192] 	arrivalPerc:histogram
field count 1
field mean 1
field stddev nan
field sum 1
field sqrsum 1
field min 1
field max 1
attr interpolationmode  none
attr source  count(arrival)
attr title  "arrival perc, histogram"
bin	-INF	0
bin	0	0
bin	1	1
bin	2	0
statistic RandomGeometricGraph.rgnv[193] 	arrivalTime:histogram
field count 1
field mean 170.013
field stddev nan
field sum 170.013
field sqrsum 28904.420169
field min 170.013
field max 170.013
attr interpolationmode  none
attr source  arrivalTime
attr title  "arrival time, histogram"
bin	-INF	0
bin	169.513	0
bin	169.54633333333	0
bin	169.57966666667	0
bin	169.613	0
bin	169.64633333333	0
bin	169.67966666667	0
bin	169.713	0
bin	169.74633333333	0
bin	169.77966666667	0
bin	169.813	0
bin	169.84633333333	0
bin	169.87966666667	0
bin	169.913	0
bin	169.94633333333	0
bin	169.97966666667	0
bin	170.013	1
bin	170.04633333333	0
bin	170.07966666667	0
bin	170.113	0
bin	170.14633333333	0
bin	170.17966666667	0
bin	170.213	0
bin	170.24633333333	0
bin	170.27966666667	0
bin	170.313	0
bin	170.34633333333	0
bin	170.37966666667	0
bin	170.413	0
bin	170.44633333333	0
bin	170.47966666667	0
bin	170.513	0
statistic RandomGeometricGraph.rgnv[193] 	arrivalPerc:histogram
field count 1
field mean 1
field stddev nan
field sum 1
field sqrsum 1
field min 1
field max 1
attr interpolationmode  none
attr source  count(arrival)
attr title  "arrival perc, histogram"
bin	-INF	0
bin	0	0
bin	1	1
bin	2	0
statistic RandomGeometricGraph.rgnv[194] 	arrivalTime:histogram
field count 1
field mean 54.934
field stddev nan
field sum 54.934
field sqrsum 3017.744356
field min 54.934
field max 54.934
attr interpolationmode  none
attr source  arrivalTime
attr title  "arrival time, histogram"
bin	-INF	0
bin	54.434	0
bin	54.467333333333	0
bin	54.500666666667	0
bin	54.534	0
bin	54.567333333333	0
bin	54.600666666667	0
bin	54.634	0
bin	54.667333333333	0
bin	54.700666666667	0
bin	54.734	0
bin	54.767333333333	0
bin	54.800666666667	0
bin	54.834	0
bin	54.867333333333	0
bin	54.900666666667	0
bin	54.934	1
bin	54.967333333333	0
bin	55.000666666667	0
bin	55.034	0
bin	55.067333333333	0
bin	55.100666666667	0
bin	55.134	0
bin	55.167333333333	0
bin	55.200666666667	0
bin	55.234	0
bin	55.267333333333	0
bin	55.300666666667	0
bin	55.334	0
bin	55.367333333333	0
bin	55.400666666667	0
bin	55.434	0
statistic RandomGeometricGraph.rgnv[194] 	arrivalPerc:histogram
field count 1
field mean 1
field stddev nan
field sum 1
field sqrsum 1
field min 1
field max 1
attr interpolationmode  none
attr source  count(arrival)
attr title  "arrival perc, histogram"
bin	-INF	0
bin	0	0
bin	1	1
bin	2	0
statistic RandomGeometricGraph.rgnv[195] 	arrivalTime:histogram
field count 1
field mean 72.175
field stddev nan
field sum 72.175
field sqrsum 5209.230625
field min 72.175
field max 72.175
attr interpolationmode  none
attr source  arrivalTime
attr title  "arrival time, histogram"
bin	-INF	0
bin	71.675	0
bin	71.708333333333	0
bin	71.741666666667	0
bin	71.775	0
bin	71.808333333333	0
bin	71.841666666667	0
bin	71.875	0
bin	71.908333333333	0
bin	71.941666666667	0
bin	71.975	0
bin	72.008333333333	0
bin	72.041666666667	0
bin	72.075	0
bin	72.108333333333	0
bin	72.141666666667	0
bin	72.175	1
bin	72.208333333333	0
bin	72.241666666667	0
bin	72.275	0
bin	72.308333333333	0
bin	72.341666666667	0
bin	72.375	0
bin	72.408333333333	0
bin	72.441666666667	0
bin	72.475	0
bin	72.508333333333	0
bin	72.541666666667	0
bin	72.575	0
bin	72.608333333333	0
bin	72.641666666667	0
bin	72.675	0
statistic RandomGeometricGraph.rgnv[195] 	arrivalPerc:histogram
field count 1
field mean 1
field stddev nan
field sum 1
field sqrsum 1
field min 1
field max 1
attr interpolationmode  none
attr source  count(arrival)
attr title  "arrival perc, histogram"
bin	-INF	0
bin	0	0
bin	1	1
bin	2	0
statistic RandomGeometricGraph.rgnv[196] 	arrivalTime:histogram
field count 1
field mean 183.33
field stddev nan
field sum 183.33
field sqrsum 33609.8889
field min 183.33
field max 183.33
attr interpolationmode  none
attr source  arrivalTime
attr title  "arrival time, histogram"
bin	-INF	0
bin	182.83	0
bin	182.86333333333	0
bin	182.89666666667	0
bin	182.93	0
bin	182.96333333333	0
bin	182.99666666667	0
bin	183.03	0
bin	183.06333333333	0
bin	183.09666666667	0
bin	183.13	0
bin	183.16333333333	0
bin	183.19666666667	0
bin	183.23	0
bin	183.26333333333	0
bin	183.29666666667	0
bin	183.33	1
bin	183.36333333333	0
bin	183.39666666667	0
bin	183.43	0
bin	183.46333333333	0
bin	183.49666666667	0
bin	183.53	0
bin	183.56333333333	0
bin	183.59666666667	0
bin	183.63	0
bin	183.66333333333	0
bin	183.69666666667	0
bin	183.73	0
bin	183.76333333333	0
bin	183.79666666667	0
bin	183.83	0
statistic RandomGeometricGraph.rgnv[196] 	arrivalPerc:histogram
field count 1
field mean 1
field stddev nan
field sum 1
field sqrsum 1
field min 1
field max 1
attr interpolationmode  none
attr source  count(arrival)
attr title  "arrival perc, histogram"
bin	-INF	0
bin	0	0
bin	1	1
bin	2	0
statistic RandomGeometricGraph.rgnv[197] 	arrivalTime:histogram
field count 1
field mean 109.436
field stddev nan
field sum 109.436
field sqrsum 11976.238096
field min 109.436
field max 109.436
attr interpolationmode  none
attr source  arrivalTime
attr title  "arrival time, histogram"
bin	-INF	0
bin	108.936	0
bin	108.96933333333	0
bin	109.00266666667	0
bin	109.036	0
bin	109.06933333333	0
bin	109.10266666667	0
bin	109.136	0
bin	109.16933333333	0
bin	109.20266666667	0
bin	109.236	0
bin	109.26933333333	0
bin	109.30266666667	0
bin	109.336	0
bin	109.36933333333	0
bin	109.40266666667	0
bin	109.436	1
bin	109.46933333333	0
bin	109.50266666667	0
bin	109.536	0
bin	109.56933333333	0
bin	109.60266666667	0
bin	109.636	0
bin	109.66933333333	0
bin	109.70266666667	0
bin	109.736	0
bin	109.76933333333	0
bin	109.80266666667	0
bin	109.836	0
bin	109.86933333333	0
bin	109.90266666667	0
bin	109.936	0
statistic RandomGeometricGraph.rgnv[197] 	arrivalPerc:histogram
field count 1
field mean 1
field stddev nan
field sum 1
field sqrsum 1
field min 1
field max 1
attr interpolationmode  none
attr source  count(arrival)
attr title  "arrival perc, histogram"
bin	-INF	0
bin	0	0
bin	1	1
bin	2	0
statistic RandomGeometricGraph.rgnv[198] 	arrivalTime:histogram
field count 1
field mean 113.858
field stddev nan
field sum 113.858
field sqrsum 12963.644164
field min 113.858
field max 113.858
attr interpolationmode  none
attr source  arrivalTime
attr title  "arrival time, histogram"
bin	-INF	0
bin	113.358	0
bin	113.39133333333	0
bin	113.42466666667	0
bin	113.458	0
bin	113.49133333333	0
bin	113.52466666667	0
bin	113.558	0
bin	113.59133333333	0
bin	113.62466666667	0
bin	113.658	0
bin	113.69133333333	0
bin	113.72466666667	0
bin	113.758	0
bin	113.79133333333	0
bin	113.82466666667	0
bin	113.858	1
bin	113.89133333333	0
bin	113.92466666667	0
bin	113.958	0
bin	113.99133333333	0
bin	114.02466666667	0
bin	114.058	0
bin	114.09133333333	0
bin	114.12466666667	0
bin	114.158	0
bin	114.19133333333	0
bin	114.22466666667	0
bin	114.258	0
bin	114.29133333333	0
bin	114.32466666667	0
bin	114.358	0
statistic RandomGeometricGraph.rgnv[198] 	arrivalPerc:histogram
field count 1
field mean 1
field stddev nan
field sum 1
field sqrsum 1
field min 1
field max 1
attr interpolationmode  none
attr source  count(arrival)
attr title  "arrival perc, histogram"
bin	-INF	0
bin	0	0
bin	1	1
bin	2	0
statistic RandomGeometricGraph.rgnv[199] 	arrivalTime:histogram
field count 1
field mean 113.868
field stddev nan
field sum 113.868
field sqrsum 12965.921424
field min 113.868
field max 113.868
attr interpolationmode  none
attr source  arrivalTime
attr title  "arrival time, histogram"
bin	-INF	0
bin	113.368	0
bin	113.40133333333	0
bin	113.43466666667	0
bin	113.468	0
bin	113.50133333333	0
bin	113.53466666667	0
bin	113.568	0
bin	113.60133333333	0
bin	113.63466666667	0
bin	113.668	0
bin	113.70133333333	0
bin	113.73466666667	0
bin	113.768	0
bin	113.80133333333	0
bin	113.83466666667	0
bin	113.868	1
bin	113.90133333333	0
bin	113.93466666667	0
bin	113.968	0
bin	114.00133333333	0
bin	114.03466666667	0
bin	114.068	0
bin	114.10133333333	0
bin	114.13466666667	0
bin	114.168	0
bin	114.20133333333	0
bin	114.23466666667	0
bin	114.268	0
bin	114.30133333333	0
bin	114.33466666667	0
bin	114.368	0
statistic RandomGeometricGraph.rgnv[199] 	arrivalPerc:histogram
field count 1
field mean 1
field stddev nan
field sum 1
field sqrsum 1
field min 1
field max 1
attr interpolationmode  none
attr source  count(arrival)
attr title  "arrival perc, histogram"
bin	-INF	0
bin	0	0
bin	1	1
bin	2	0
