version 2
run rgg200-9-20170110-16:23:40-11336
attr configname rgg200
attr datetime 20170110-16:23:40
attr experiment rgg200
attr inifile iniFile/D001/omnetpp_15D001.ini
attr iterationvars ""
attr iterationvars2 $repetition=9
attr measurement ""
attr network blegossipprj.net.randomgeometricgraph.RandomGeometricGraph
attr processid 11336
attr repetition 9
attr replication #9
attr resultdir ../../results/D001/r15D001
attr runnumber 9
attr seedset 9
param RandomGeometricGraph.netSize 200
param RandomGeometricGraph.radius 15
param RandomGeometricGraph.rgnv[*].areaLength 141
param RandomGeometricGraph.rgnv[*].areaWidth 141

statistic RandomGeometricGraph.sc 	arrivalPercentage
field count 182
field mean 1
field stddev 0
field sum 182
field sqrsum 182
field min 1
field max 1
attr type  int
bin	-INF	0
bin	0	0
bin	1	182
bin	2	0
statistic RandomGeometricGraph.sc 	arrivalTime
field count 182
field mean 192.28024175824
field stddev 80.300160131232
field sum 34995.004
field sqrsum 7895956.774246
field min 0
field max 368.528
bin	-INF	0
bin	-99.7525	0
bin	-86.452166666667	0
bin	-73.151833333333	0
bin	-59.8515	0
bin	-46.551166666667	0
bin	-33.250833333333	0
bin	-19.9505	0
bin	-6.6501666666667	1
bin	6.6501666666667	1
bin	19.9505	2
bin	33.250833333333	3
bin	46.551166666667	2
bin	59.8515	3
bin	73.151833333333	5
bin	86.452166666667	8
bin	99.7525	7
bin	113.05283333333	8
bin	126.35316666667	5
bin	139.6535	11
bin	152.95383333333	12
bin	166.25416666667	15
bin	179.5545	10
bin	192.85483333333	12
bin	206.15516666667	12
bin	219.4555	8
bin	232.75583333333	10
bin	246.05616666667	8
bin	259.3565	5
bin	272.65683333333	10
bin	285.95716666667	4
bin	299.2575	20
statistic RandomGeometricGraph.rgnv[0] 	arrivalTime:histogram
field count 1
field mean 194.515
field stddev nan
field sum 194.515
field sqrsum 37836.085225
field min 194.515
field max 194.515
attr interpolationmode  none
attr source  arrivalTime
attr title  "arrival time, histogram"
bin	-INF	0
bin	194.015	0
bin	194.04833333333	0
bin	194.08166666667	0
bin	194.115	0
bin	194.14833333333	0
bin	194.18166666667	0
bin	194.215	0
bin	194.24833333333	0
bin	194.28166666667	0
bin	194.315	0
bin	194.34833333333	0
bin	194.38166666667	0
bin	194.415	0
bin	194.44833333333	0
bin	194.48166666667	0
bin	194.515	1
bin	194.54833333333	0
bin	194.58166666667	0
bin	194.615	0
bin	194.64833333333	0
bin	194.68166666667	0
bin	194.715	0
bin	194.74833333333	0
bin	194.78166666667	0
bin	194.815	0
bin	194.84833333333	0
bin	194.88166666667	0
bin	194.915	0
bin	194.94833333333	0
bin	194.98166666667	0
bin	195.015	0
statistic RandomGeometricGraph.rgnv[0] 	arrivalPerc:histogram
field count 1
field mean 1
field stddev nan
field sum 1
field sqrsum 1
field min 1
field max 1
attr interpolationmode  none
attr source  count(arrival)
attr title  "arrival perc, histogram"
bin	-INF	0
bin	0	0
bin	1	1
bin	2	0
statistic RandomGeometricGraph.rgnv[1] 	arrivalTime:histogram
field count 1
field mean 147.802
field stddev nan
field sum 147.802
field sqrsum 21845.431204
field min 147.802
field max 147.802
attr interpolationmode  none
attr source  arrivalTime
attr title  "arrival time, histogram"
bin	-INF	0
bin	147.302	0
bin	147.33533333333	0
bin	147.36866666667	0
bin	147.402	0
bin	147.43533333333	0
bin	147.46866666667	0
bin	147.502	0
bin	147.53533333333	0
bin	147.56866666667	0
bin	147.602	0
bin	147.63533333333	0
bin	147.66866666667	0
bin	147.702	0
bin	147.73533333333	0
bin	147.76866666667	0
bin	147.802	1
bin	147.83533333333	0
bin	147.86866666667	0
bin	147.902	0
bin	147.93533333333	0
bin	147.96866666667	0
bin	148.002	0
bin	148.03533333333	0
bin	148.06866666667	0
bin	148.102	0
bin	148.13533333333	0
bin	148.16866666667	0
bin	148.202	0
bin	148.23533333333	0
bin	148.26866666667	0
bin	148.302	0
statistic RandomGeometricGraph.rgnv[1] 	arrivalPerc:histogram
field count 1
field mean 1
field stddev nan
field sum 1
field sqrsum 1
field min 1
field max 1
attr interpolationmode  none
attr source  count(arrival)
attr title  "arrival perc, histogram"
bin	-INF	0
bin	0	0
bin	1	1
bin	2	0
statistic RandomGeometricGraph.rgnv[2] 	arrivalTime:histogram
field count 0
field mean nan
field stddev nan
field sum 0
field sqrsum 0
field min nan
field max nan
attr interpolationmode  none
attr source  arrivalTime
attr title  "arrival time, histogram"
bin	-INF	0
bin	-0.5	0
bin	-0.46666666666667	0
bin	-0.43333333333333	0
bin	-0.4	0
bin	-0.36666666666667	0
bin	-0.33333333333333	0
bin	-0.3	0
bin	-0.26666666666667	0
bin	-0.23333333333333	0
bin	-0.2	0
bin	-0.16666666666667	0
bin	-0.13333333333333	0
bin	-0.1	0
bin	-0.066666666666667	0
bin	-0.033333333333333	0
bin	0	0
bin	0.033333333333333	0
bin	0.066666666666667	0
bin	0.1	0
bin	0.13333333333333	0
bin	0.16666666666667	0
bin	0.2	0
bin	0.23333333333333	0
bin	0.26666666666667	0
bin	0.3	0
bin	0.33333333333333	0
bin	0.36666666666667	0
bin	0.4	0
bin	0.43333333333333	0
bin	0.46666666666667	0
bin	0.5	0
statistic RandomGeometricGraph.rgnv[2] 	arrivalPerc:histogram
field count 0
field mean nan
field stddev nan
field sum 0
field sqrsum 0
field min nan
field max nan
attr interpolationmode  none
attr source  count(arrival)
attr title  "arrival perc, histogram"
bin	-INF	0
bin	-0.5	0
bin	-0.46666666666667	0
bin	-0.43333333333333	0
bin	-0.4	0
bin	-0.36666666666667	0
bin	-0.33333333333333	0
bin	-0.3	0
bin	-0.26666666666667	0
bin	-0.23333333333333	0
bin	-0.2	0
bin	-0.16666666666667	0
bin	-0.13333333333333	0
bin	-0.1	0
bin	-0.066666666666667	0
bin	-0.033333333333333	0
bin	0	0
bin	0.033333333333333	0
bin	0.066666666666667	0
bin	0.1	0
bin	0.13333333333333	0
bin	0.16666666666667	0
bin	0.2	0
bin	0.23333333333333	0
bin	0.26666666666667	0
bin	0.3	0
bin	0.33333333333333	0
bin	0.36666666666667	0
bin	0.4	0
bin	0.43333333333333	0
bin	0.46666666666667	0
bin	0.5	0
statistic RandomGeometricGraph.rgnv[3] 	arrivalTime:histogram
field count 0
field mean nan
field stddev nan
field sum 0
field sqrsum 0
field min nan
field max nan
attr interpolationmode  none
attr source  arrivalTime
attr title  "arrival time, histogram"
bin	-INF	0
bin	-0.5	0
bin	-0.46666666666667	0
bin	-0.43333333333333	0
bin	-0.4	0
bin	-0.36666666666667	0
bin	-0.33333333333333	0
bin	-0.3	0
bin	-0.26666666666667	0
bin	-0.23333333333333	0
bin	-0.2	0
bin	-0.16666666666667	0
bin	-0.13333333333333	0
bin	-0.1	0
bin	-0.066666666666667	0
bin	-0.033333333333333	0
bin	0	0
bin	0.033333333333333	0
bin	0.066666666666667	0
bin	0.1	0
bin	0.13333333333333	0
bin	0.16666666666667	0
bin	0.2	0
bin	0.23333333333333	0
bin	0.26666666666667	0
bin	0.3	0
bin	0.33333333333333	0
bin	0.36666666666667	0
bin	0.4	0
bin	0.43333333333333	0
bin	0.46666666666667	0
bin	0.5	0
statistic RandomGeometricGraph.rgnv[3] 	arrivalPerc:histogram
field count 0
field mean nan
field stddev nan
field sum 0
field sqrsum 0
field min nan
field max nan
attr interpolationmode  none
attr source  count(arrival)
attr title  "arrival perc, histogram"
bin	-INF	0
bin	-0.5	0
bin	-0.46666666666667	0
bin	-0.43333333333333	0
bin	-0.4	0
bin	-0.36666666666667	0
bin	-0.33333333333333	0
bin	-0.3	0
bin	-0.26666666666667	0
bin	-0.23333333333333	0
bin	-0.2	0
bin	-0.16666666666667	0
bin	-0.13333333333333	0
bin	-0.1	0
bin	-0.066666666666667	0
bin	-0.033333333333333	0
bin	0	0
bin	0.033333333333333	0
bin	0.066666666666667	0
bin	0.1	0
bin	0.13333333333333	0
bin	0.16666666666667	0
bin	0.2	0
bin	0.23333333333333	0
bin	0.26666666666667	0
bin	0.3	0
bin	0.33333333333333	0
bin	0.36666666666667	0
bin	0.4	0
bin	0.43333333333333	0
bin	0.46666666666667	0
bin	0.5	0
statistic RandomGeometricGraph.rgnv[4] 	arrivalTime:histogram
field count 1
field mean 334.056
field stddev nan
field sum 334.056
field sqrsum 111593.411136
field min 334.056
field max 334.056
attr interpolationmode  none
attr source  arrivalTime
attr title  "arrival time, histogram"
bin	-INF	0
bin	333.556	0
bin	333.58933333333	0
bin	333.62266666667	0
bin	333.656	0
bin	333.68933333333	0
bin	333.72266666667	0
bin	333.756	0
bin	333.78933333333	0
bin	333.82266666667	0
bin	333.856	0
bin	333.88933333333	0
bin	333.92266666667	0
bin	333.956	0
bin	333.98933333333	0
bin	334.02266666667	0
bin	334.056	1
bin	334.08933333333	0
bin	334.12266666667	0
bin	334.156	0
bin	334.18933333333	0
bin	334.22266666667	0
bin	334.256	0
bin	334.28933333333	0
bin	334.32266666667	0
bin	334.356	0
bin	334.38933333333	0
bin	334.42266666667	0
bin	334.456	0
bin	334.48933333333	0
bin	334.52266666667	0
bin	334.556	0
statistic RandomGeometricGraph.rgnv[4] 	arrivalPerc:histogram
field count 1
field mean 1
field stddev nan
field sum 1
field sqrsum 1
field min 1
field max 1
attr interpolationmode  none
attr source  count(arrival)
attr title  "arrival perc, histogram"
bin	-INF	0
bin	0	0
bin	1	1
bin	2	0
statistic RandomGeometricGraph.rgnv[5] 	arrivalTime:histogram
field count 1
field mean 140.571
field stddev nan
field sum 140.571
field sqrsum 19760.206041
field min 140.571
field max 140.571
attr interpolationmode  none
attr source  arrivalTime
attr title  "arrival time, histogram"
bin	-INF	0
bin	140.071	0
bin	140.10433333333	0
bin	140.13766666667	0
bin	140.171	0
bin	140.20433333333	0
bin	140.23766666667	0
bin	140.271	0
bin	140.30433333333	0
bin	140.33766666667	0
bin	140.371	0
bin	140.40433333333	0
bin	140.43766666667	0
bin	140.471	0
bin	140.50433333333	0
bin	140.53766666667	0
bin	140.571	1
bin	140.60433333333	0
bin	140.63766666667	0
bin	140.671	0
bin	140.70433333333	0
bin	140.73766666667	0
bin	140.771	0
bin	140.80433333333	0
bin	140.83766666667	0
bin	140.871	0
bin	140.90433333333	0
bin	140.93766666667	0
bin	140.971	0
bin	141.00433333333	0
bin	141.03766666667	0
bin	141.071	0
statistic RandomGeometricGraph.rgnv[5] 	arrivalPerc:histogram
field count 1
field mean 1
field stddev nan
field sum 1
field sqrsum 1
field min 1
field max 1
attr interpolationmode  none
attr source  count(arrival)
attr title  "arrival perc, histogram"
bin	-INF	0
bin	0	0
bin	1	1
bin	2	0
statistic RandomGeometricGraph.rgnv[6] 	arrivalTime:histogram
field count 1
field mean 339.066
field stddev nan
field sum 339.066
field sqrsum 114965.752356
field min 339.066
field max 339.066
attr interpolationmode  none
attr source  arrivalTime
attr title  "arrival time, histogram"
bin	-INF	0
bin	338.566	0
bin	338.59933333333	0
bin	338.63266666667	0
bin	338.666	0
bin	338.69933333333	0
bin	338.73266666667	0
bin	338.766	0
bin	338.79933333333	0
bin	338.83266666667	0
bin	338.866	0
bin	338.89933333333	0
bin	338.93266666667	0
bin	338.966	0
bin	338.99933333333	0
bin	339.03266666667	0
bin	339.066	1
bin	339.09933333333	0
bin	339.13266666667	0
bin	339.166	0
bin	339.19933333333	0
bin	339.23266666667	0
bin	339.266	0
bin	339.29933333333	0
bin	339.33266666667	0
bin	339.366	0
bin	339.39933333333	0
bin	339.43266666667	0
bin	339.466	0
bin	339.49933333333	0
bin	339.53266666667	0
bin	339.566	0
statistic RandomGeometricGraph.rgnv[6] 	arrivalPerc:histogram
field count 1
field mean 1
field stddev nan
field sum 1
field sqrsum 1
field min 1
field max 1
attr interpolationmode  none
attr source  count(arrival)
attr title  "arrival perc, histogram"
bin	-INF	0
bin	0	0
bin	1	1
bin	2	0
statistic RandomGeometricGraph.rgnv[7] 	arrivalTime:histogram
field count 1
field mean 356.297
field stddev nan
field sum 356.297
field sqrsum 126947.552209
field min 356.297
field max 356.297
attr interpolationmode  none
attr source  arrivalTime
attr title  "arrival time, histogram"
bin	-INF	0
bin	355.797	0
bin	355.83033333333	0
bin	355.86366666667	0
bin	355.897	0
bin	355.93033333333	0
bin	355.96366666667	0
bin	355.997	0
bin	356.03033333333	0
bin	356.06366666667	0
bin	356.097	0
bin	356.13033333333	0
bin	356.16366666667	0
bin	356.197	0
bin	356.23033333333	0
bin	356.26366666667	0
bin	356.297	1
bin	356.33033333333	0
bin	356.36366666667	0
bin	356.397	0
bin	356.43033333333	0
bin	356.46366666667	0
bin	356.497	0
bin	356.53033333333	0
bin	356.56366666667	0
bin	356.597	0
bin	356.63033333333	0
bin	356.66366666667	0
bin	356.697	0
bin	356.73033333333	0
bin	356.76366666667	0
bin	356.797	0
statistic RandomGeometricGraph.rgnv[7] 	arrivalPerc:histogram
field count 1
field mean 1
field stddev nan
field sum 1
field sqrsum 1
field min 1
field max 1
attr interpolationmode  none
attr source  count(arrival)
attr title  "arrival perc, histogram"
bin	-INF	0
bin	0	0
bin	1	1
bin	2	0
statistic RandomGeometricGraph.rgnv[8] 	arrivalTime:histogram
field count 1
field mean 248.439
field stddev nan
field sum 248.439
field sqrsum 61721.936721
field min 248.439
field max 248.439
attr interpolationmode  none
attr source  arrivalTime
attr title  "arrival time, histogram"
bin	-INF	0
bin	247.939	0
bin	247.97233333333	0
bin	248.00566666667	0
bin	248.039	0
bin	248.07233333333	0
bin	248.10566666667	0
bin	248.139	0
bin	248.17233333333	0
bin	248.20566666667	0
bin	248.239	0
bin	248.27233333333	0
bin	248.30566666667	0
bin	248.339	0
bin	248.37233333333	0
bin	248.40566666667	0
bin	248.439	1
bin	248.47233333333	0
bin	248.50566666667	0
bin	248.539	0
bin	248.57233333333	0
bin	248.60566666667	0
bin	248.639	0
bin	248.67233333333	0
bin	248.70566666667	0
bin	248.739	0
bin	248.77233333333	0
bin	248.80566666667	0
bin	248.839	0
bin	248.87233333333	0
bin	248.90566666667	0
bin	248.939	0
statistic RandomGeometricGraph.rgnv[8] 	arrivalPerc:histogram
field count 1
field mean 1
field stddev nan
field sum 1
field sqrsum 1
field min 1
field max 1
attr interpolationmode  none
attr source  count(arrival)
attr title  "arrival perc, histogram"
bin	-INF	0
bin	0	0
bin	1	1
bin	2	0
statistic RandomGeometricGraph.rgnv[9] 	arrivalTime:histogram
field count 1
field mean 218.967
field stddev nan
field sum 218.967
field sqrsum 47946.547089
field min 218.967
field max 218.967
attr interpolationmode  none
attr source  arrivalTime
attr title  "arrival time, histogram"
bin	-INF	0
bin	218.467	0
bin	218.50033333333	0
bin	218.53366666667	0
bin	218.567	0
bin	218.60033333333	0
bin	218.63366666667	0
bin	218.667	0
bin	218.70033333333	0
bin	218.73366666667	0
bin	218.767	0
bin	218.80033333333	0
bin	218.83366666667	0
bin	218.867	0
bin	218.90033333333	0
bin	218.93366666667	0
bin	218.967	1
bin	219.00033333333	0
bin	219.03366666667	0
bin	219.067	0
bin	219.10033333333	0
bin	219.13366666667	0
bin	219.167	0
bin	219.20033333333	0
bin	219.23366666667	0
bin	219.267	0
bin	219.30033333333	0
bin	219.33366666667	0
bin	219.367	0
bin	219.40033333333	0
bin	219.43366666667	0
bin	219.467	0
statistic RandomGeometricGraph.rgnv[9] 	arrivalPerc:histogram
field count 1
field mean 1
field stddev nan
field sum 1
field sqrsum 1
field min 1
field max 1
attr interpolationmode  none
attr source  count(arrival)
attr title  "arrival perc, histogram"
bin	-INF	0
bin	0	0
bin	1	1
bin	2	0
statistic RandomGeometricGraph.rgnv[10] 	arrivalTime:histogram
field count 0
field mean nan
field stddev nan
field sum 0
field sqrsum 0
field min nan
field max nan
attr interpolationmode  none
attr source  arrivalTime
attr title  "arrival time, histogram"
bin	-INF	0
bin	-0.5	0
bin	-0.46666666666667	0
bin	-0.43333333333333	0
bin	-0.4	0
bin	-0.36666666666667	0
bin	-0.33333333333333	0
bin	-0.3	0
bin	-0.26666666666667	0
bin	-0.23333333333333	0
bin	-0.2	0
bin	-0.16666666666667	0
bin	-0.13333333333333	0
bin	-0.1	0
bin	-0.066666666666667	0
bin	-0.033333333333333	0
bin	0	0
bin	0.033333333333333	0
bin	0.066666666666667	0
bin	0.1	0
bin	0.13333333333333	0
bin	0.16666666666667	0
bin	0.2	0
bin	0.23333333333333	0
bin	0.26666666666667	0
bin	0.3	0
bin	0.33333333333333	0
bin	0.36666666666667	0
bin	0.4	0
bin	0.43333333333333	0
bin	0.46666666666667	0
bin	0.5	0
statistic RandomGeometricGraph.rgnv[10] 	arrivalPerc:histogram
field count 0
field mean nan
field stddev nan
field sum 0
field sqrsum 0
field min nan
field max nan
attr interpolationmode  none
attr source  count(arrival)
attr title  "arrival perc, histogram"
bin	-INF	0
bin	-0.5	0
bin	-0.46666666666667	0
bin	-0.43333333333333	0
bin	-0.4	0
bin	-0.36666666666667	0
bin	-0.33333333333333	0
bin	-0.3	0
bin	-0.26666666666667	0
bin	-0.23333333333333	0
bin	-0.2	0
bin	-0.16666666666667	0
bin	-0.13333333333333	0
bin	-0.1	0
bin	-0.066666666666667	0
bin	-0.033333333333333	0
bin	0	0
bin	0.033333333333333	0
bin	0.066666666666667	0
bin	0.1	0
bin	0.13333333333333	0
bin	0.16666666666667	0
bin	0.2	0
bin	0.23333333333333	0
bin	0.26666666666667	0
bin	0.3	0
bin	0.33333333333333	0
bin	0.36666666666667	0
bin	0.4	0
bin	0.43333333333333	0
bin	0.46666666666667	0
bin	0.5	0
statistic RandomGeometricGraph.rgnv[11] 	arrivalTime:histogram
field count 1
field mean 189.495
field stddev nan
field sum 189.495
field sqrsum 35908.355025
field min 189.495
field max 189.495
attr interpolationmode  none
attr source  arrivalTime
attr title  "arrival time, histogram"
bin	-INF	0
bin	188.995	0
bin	189.02833333333	0
bin	189.06166666667	0
bin	189.095	0
bin	189.12833333333	0
bin	189.16166666667	0
bin	189.195	0
bin	189.22833333333	0
bin	189.26166666667	0
bin	189.295	0
bin	189.32833333333	0
bin	189.36166666667	0
bin	189.395	0
bin	189.42833333333	0
bin	189.46166666667	0
bin	189.495	1
bin	189.52833333333	0
bin	189.56166666667	0
bin	189.595	0
bin	189.62833333333	0
bin	189.66166666667	0
bin	189.695	0
bin	189.72833333333	0
bin	189.76166666667	0
bin	189.795	0
bin	189.82833333333	0
bin	189.86166666667	0
bin	189.895	0
bin	189.92833333333	0
bin	189.96166666667	0
bin	189.995	0
statistic RandomGeometricGraph.rgnv[11] 	arrivalPerc:histogram
field count 1
field mean 1
field stddev nan
field sum 1
field sqrsum 1
field min 1
field max 1
attr interpolationmode  none
attr source  count(arrival)
attr title  "arrival perc, histogram"
bin	-INF	0
bin	0	0
bin	1	1
bin	2	0
statistic RandomGeometricGraph.rgnv[12] 	arrivalTime:histogram
field count 1
field mean 275.122
field stddev nan
field sum 275.122
field sqrsum 75692.114884
field min 275.122
field max 275.122
attr interpolationmode  none
attr source  arrivalTime
attr title  "arrival time, histogram"
bin	-INF	0
bin	274.622	0
bin	274.65533333333	0
bin	274.68866666667	0
bin	274.722	0
bin	274.75533333333	0
bin	274.78866666667	0
bin	274.822	0
bin	274.85533333333	0
bin	274.88866666667	0
bin	274.922	0
bin	274.95533333333	0
bin	274.98866666667	0
bin	275.022	0
bin	275.05533333333	0
bin	275.08866666667	0
bin	275.122	1
bin	275.15533333333	0
bin	275.18866666667	0
bin	275.222	0
bin	275.25533333333	0
bin	275.28866666667	0
bin	275.322	0
bin	275.35533333333	0
bin	275.38866666667	0
bin	275.422	0
bin	275.45533333333	0
bin	275.48866666667	0
bin	275.522	0
bin	275.55533333333	0
bin	275.58866666667	0
bin	275.622	0
statistic RandomGeometricGraph.rgnv[12] 	arrivalPerc:histogram
field count 1
field mean 1
field stddev nan
field sum 1
field sqrsum 1
field min 1
field max 1
attr interpolationmode  none
attr source  count(arrival)
attr title  "arrival perc, histogram"
bin	-INF	0
bin	0	0
bin	1	1
bin	2	0
statistic RandomGeometricGraph.rgnv[13] 	arrivalTime:histogram
field count 1
field mean 108.868
field stddev nan
field sum 108.868
field sqrsum 11852.241424
field min 108.868
field max 108.868
attr interpolationmode  none
attr source  arrivalTime
attr title  "arrival time, histogram"
bin	-INF	0
bin	108.368	0
bin	108.40133333333	0
bin	108.43466666667	0
bin	108.468	0
bin	108.50133333333	0
bin	108.53466666667	0
bin	108.568	0
bin	108.60133333333	0
bin	108.63466666667	0
bin	108.668	0
bin	108.70133333333	0
bin	108.73466666667	0
bin	108.768	0
bin	108.80133333333	0
bin	108.83466666667	0
bin	108.868	1
bin	108.90133333333	0
bin	108.93466666667	0
bin	108.968	0
bin	109.00133333333	0
bin	109.03466666667	0
bin	109.068	0
bin	109.10133333333	0
bin	109.13466666667	0
bin	109.168	0
bin	109.20133333333	0
bin	109.23466666667	0
bin	109.268	0
bin	109.30133333333	0
bin	109.33466666667	0
bin	109.368	0
statistic RandomGeometricGraph.rgnv[13] 	arrivalPerc:histogram
field count 1
field mean 1
field stddev nan
field sum 1
field sqrsum 1
field min 1
field max 1
attr interpolationmode  none
attr source  count(arrival)
attr title  "arrival perc, histogram"
bin	-INF	0
bin	0	0
bin	1	1
bin	2	0
statistic RandomGeometricGraph.rgnv[14] 	arrivalTime:histogram
field count 1
field mean 111.109
field stddev nan
field sum 111.109
field sqrsum 12345.209881
field min 111.109
field max 111.109
attr interpolationmode  none
attr source  arrivalTime
attr title  "arrival time, histogram"
bin	-INF	0
bin	110.609	0
bin	110.64233333333	0
bin	110.67566666667	0
bin	110.709	0
bin	110.74233333333	0
bin	110.77566666667	0
bin	110.809	0
bin	110.84233333333	0
bin	110.87566666667	0
bin	110.909	0
bin	110.94233333333	0
bin	110.97566666667	0
bin	111.009	0
bin	111.04233333333	0
bin	111.07566666667	0
bin	111.109	1
bin	111.14233333333	0
bin	111.17566666667	0
bin	111.209	0
bin	111.24233333333	0
bin	111.27566666667	0
bin	111.309	0
bin	111.34233333333	0
bin	111.37566666667	0
bin	111.409	0
bin	111.44233333333	0
bin	111.47566666667	0
bin	111.509	0
bin	111.54233333333	0
bin	111.57566666667	0
bin	111.609	0
statistic RandomGeometricGraph.rgnv[14] 	arrivalPerc:histogram
field count 1
field mean 1
field stddev nan
field sum 1
field sqrsum 1
field min 1
field max 1
attr interpolationmode  none
attr source  count(arrival)
attr title  "arrival perc, histogram"
bin	-INF	0
bin	0	0
bin	1	1
bin	2	0
statistic RandomGeometricGraph.rgnv[15] 	arrivalTime:histogram
field count 1
field mean 226.188
field stddev nan
field sum 226.188
field sqrsum 51161.011344
field min 226.188
field max 226.188
attr interpolationmode  none
attr source  arrivalTime
attr title  "arrival time, histogram"
bin	-INF	0
bin	225.688	0
bin	225.72133333333	0
bin	225.75466666667	0
bin	225.788	0
bin	225.82133333333	0
bin	225.85466666667	0
bin	225.888	0
bin	225.92133333333	0
bin	225.95466666667	0
bin	225.988	0
bin	226.02133333333	0
bin	226.05466666667	0
bin	226.088	0
bin	226.12133333333	0
bin	226.15466666667	0
bin	226.188	1
bin	226.22133333333	0
bin	226.25466666667	0
bin	226.288	0
bin	226.32133333333	0
bin	226.35466666667	0
bin	226.388	0
bin	226.42133333333	0
bin	226.45466666667	0
bin	226.488	0
bin	226.52133333333	0
bin	226.55466666667	0
bin	226.588	0
bin	226.62133333333	0
bin	226.65466666667	0
bin	226.688	0
statistic RandomGeometricGraph.rgnv[15] 	arrivalPerc:histogram
field count 1
field mean 1
field stddev nan
field sum 1
field sqrsum 1
field min 1
field max 1
attr interpolationmode  none
attr source  count(arrival)
attr title  "arrival perc, histogram"
bin	-INF	0
bin	0	0
bin	1	1
bin	2	0
statistic RandomGeometricGraph.rgnv[16] 	arrivalTime:histogram
field count 1
field mean 211.736
field stddev nan
field sum 211.736
field sqrsum 44832.133696
field min 211.736
field max 211.736
attr interpolationmode  none
attr source  arrivalTime
attr title  "arrival time, histogram"
bin	-INF	0
bin	211.236	0
bin	211.26933333333	0
bin	211.30266666667	0
bin	211.336	0
bin	211.36933333333	0
bin	211.40266666667	0
bin	211.436	0
bin	211.46933333333	0
bin	211.50266666667	0
bin	211.536	0
bin	211.56933333333	0
bin	211.60266666667	0
bin	211.636	0
bin	211.66933333333	0
bin	211.70266666667	0
bin	211.736	1
bin	211.76933333333	0
bin	211.80266666667	0
bin	211.836	0
bin	211.86933333333	0
bin	211.90266666667	0
bin	211.936	0
bin	211.96933333333	0
bin	212.00266666667	0
bin	212.036	0
bin	212.06933333333	0
bin	212.10266666667	0
bin	212.136	0
bin	212.16933333333	0
bin	212.20266666667	0
bin	212.236	0
statistic RandomGeometricGraph.rgnv[16] 	arrivalPerc:histogram
field count 1
field mean 1
field stddev nan
field sum 1
field sqrsum 1
field min 1
field max 1
attr interpolationmode  none
attr source  count(arrival)
attr title  "arrival perc, histogram"
bin	-INF	0
bin	0	0
bin	1	1
bin	2	0
statistic RandomGeometricGraph.rgnv[17] 	arrivalTime:histogram
field count 1
field mean 111.089
field stddev nan
field sum 111.089
field sqrsum 12340.765921
field min 111.089
field max 111.089
attr interpolationmode  none
attr source  arrivalTime
attr title  "arrival time, histogram"
bin	-INF	0
bin	110.589	0
bin	110.62233333333	0
bin	110.65566666667	0
bin	110.689	0
bin	110.72233333333	0
bin	110.75566666667	0
bin	110.789	0
bin	110.82233333333	0
bin	110.85566666667	0
bin	110.889	0
bin	110.92233333333	0
bin	110.95566666667	0
bin	110.989	0
bin	111.02233333333	0
bin	111.05566666667	0
bin	111.089	1
bin	111.12233333333	0
bin	111.15566666667	0
bin	111.189	0
bin	111.22233333333	0
bin	111.25566666667	0
bin	111.289	0
bin	111.32233333333	0
bin	111.35566666667	0
bin	111.389	0
bin	111.42233333333	0
bin	111.45566666667	0
bin	111.489	0
bin	111.52233333333	0
bin	111.55566666667	0
bin	111.589	0
statistic RandomGeometricGraph.rgnv[17] 	arrivalPerc:histogram
field count 1
field mean 1
field stddev nan
field sum 1
field sqrsum 1
field min 1
field max 1
attr interpolationmode  none
attr source  count(arrival)
attr title  "arrival perc, histogram"
bin	-INF	0
bin	0	0
bin	1	1
bin	2	0
statistic RandomGeometricGraph.rgnv[18] 	arrivalTime:histogram
field count 1
field mean 133.34
field stddev nan
field sum 133.34
field sqrsum 17779.5556
field min 133.34
field max 133.34
attr interpolationmode  none
attr source  arrivalTime
attr title  "arrival time, histogram"
bin	-INF	0
bin	132.84	0
bin	132.87333333333	0
bin	132.90666666667	0
bin	132.94	0
bin	132.97333333333	0
bin	133.00666666667	0
bin	133.04	0
bin	133.07333333333	0
bin	133.10666666667	0
bin	133.14	0
bin	133.17333333333	0
bin	133.20666666667	0
bin	133.24	0
bin	133.27333333333	0
bin	133.30666666667	0
bin	133.34	1
bin	133.37333333333	0
bin	133.40666666667	0
bin	133.44	0
bin	133.47333333333	0
bin	133.50666666667	0
bin	133.54	0
bin	133.57333333333	0
bin	133.60666666667	0
bin	133.64	0
bin	133.67333333333	0
bin	133.70666666667	0
bin	133.74	0
bin	133.77333333333	0
bin	133.80666666667	0
bin	133.84	0
statistic RandomGeometricGraph.rgnv[18] 	arrivalPerc:histogram
field count 1
field mean 1
field stddev nan
field sum 1
field sqrsum 1
field min 1
field max 1
attr interpolationmode  none
attr source  count(arrival)
attr title  "arrival perc, histogram"
bin	-INF	0
bin	0	0
bin	1	1
bin	2	0
statistic RandomGeometricGraph.rgnv[19] 	arrivalTime:histogram
field count 1
field mean 165.033
field stddev nan
field sum 165.033
field sqrsum 27235.891089
field min 165.033
field max 165.033
attr interpolationmode  none
attr source  arrivalTime
attr title  "arrival time, histogram"
bin	-INF	0
bin	164.533	0
bin	164.56633333333	0
bin	164.59966666667	0
bin	164.633	0
bin	164.66633333333	0
bin	164.69966666667	0
bin	164.733	0
bin	164.76633333333	0
bin	164.79966666667	0
bin	164.833	0
bin	164.86633333333	0
bin	164.89966666667	0
bin	164.933	0
bin	164.96633333333	0
bin	164.99966666667	0
bin	165.033	1
bin	165.06633333333	0
bin	165.09966666667	0
bin	165.133	0
bin	165.16633333333	0
bin	165.19966666667	0
bin	165.233	0
bin	165.26633333333	0
bin	165.29966666667	0
bin	165.333	0
bin	165.36633333333	0
bin	165.39966666667	0
bin	165.433	0
bin	165.46633333333	0
bin	165.49966666667	0
bin	165.533	0
statistic RandomGeometricGraph.rgnv[19] 	arrivalPerc:histogram
field count 1
field mean 1
field stddev nan
field sum 1
field sqrsum 1
field min 1
field max 1
attr interpolationmode  none
attr source  count(arrival)
attr title  "arrival perc, histogram"
bin	-INF	0
bin	0	0
bin	1	1
bin	2	0
statistic RandomGeometricGraph.rgnv[20] 	arrivalTime:histogram
field count 1
field mean 103.868
field stddev nan
field sum 103.868
field sqrsum 10788.561424
field min 103.868
field max 103.868
attr interpolationmode  none
attr source  arrivalTime
attr title  "arrival time, histogram"
bin	-INF	0
bin	103.368	0
bin	103.40133333333	0
bin	103.43466666667	0
bin	103.468	0
bin	103.50133333333	0
bin	103.53466666667	0
bin	103.568	0
bin	103.60133333333	0
bin	103.63466666667	0
bin	103.668	0
bin	103.70133333333	0
bin	103.73466666667	0
bin	103.768	0
bin	103.80133333333	0
bin	103.83466666667	0
bin	103.868	1
bin	103.90133333333	0
bin	103.93466666667	0
bin	103.968	0
bin	104.00133333333	0
bin	104.03466666667	0
bin	104.068	0
bin	104.10133333333	0
bin	104.13466666667	0
bin	104.168	0
bin	104.20133333333	0
bin	104.23466666667	0
bin	104.268	0
bin	104.30133333333	0
bin	104.33466666667	0
bin	104.368	0
statistic RandomGeometricGraph.rgnv[20] 	arrivalPerc:histogram
field count 1
field mean 1
field stddev nan
field sum 1
field sqrsum 1
field min 1
field max 1
attr interpolationmode  none
attr source  count(arrival)
attr title  "arrival perc, histogram"
bin	-INF	0
bin	0	0
bin	1	1
bin	2	0
statistic RandomGeometricGraph.rgnv[21] 	arrivalTime:histogram
field count 1
field mean 128.33
field stddev nan
field sum 128.33
field sqrsum 16468.5889
field min 128.33
field max 128.33
attr interpolationmode  none
attr source  arrivalTime
attr title  "arrival time, histogram"
bin	-INF	0
bin	127.83	0
bin	127.86333333333	0
bin	127.89666666667	0
bin	127.93	0
bin	127.96333333333	0
bin	127.99666666667	0
bin	128.03	0
bin	128.06333333333	0
bin	128.09666666667	0
bin	128.13	0
bin	128.16333333333	0
bin	128.19666666667	0
bin	128.23	0
bin	128.26333333333	0
bin	128.29666666667	0
bin	128.33	1
bin	128.36333333333	0
bin	128.39666666667	0
bin	128.43	0
bin	128.46333333333	0
bin	128.49666666667	0
bin	128.53	0
bin	128.56333333333	0
bin	128.59666666667	0
bin	128.63	0
bin	128.66333333333	0
bin	128.69666666667	0
bin	128.73	0
bin	128.76333333333	0
bin	128.79666666667	0
bin	128.83	0
statistic RandomGeometricGraph.rgnv[21] 	arrivalPerc:histogram
field count 1
field mean 1
field stddev nan
field sum 1
field sqrsum 1
field min 1
field max 1
attr interpolationmode  none
attr source  count(arrival)
attr title  "arrival perc, histogram"
bin	-INF	0
bin	0	0
bin	1	1
bin	2	0
statistic RandomGeometricGraph.rgnv[22] 	arrivalTime:histogram
field count 1
field mean 147.792
field stddev nan
field sum 147.792
field sqrsum 21842.475264
field min 147.792
field max 147.792
attr interpolationmode  none
attr source  arrivalTime
attr title  "arrival time, histogram"
bin	-INF	0
bin	147.292	0
bin	147.32533333333	0
bin	147.35866666667	0
bin	147.392	0
bin	147.42533333333	0
bin	147.45866666667	0
bin	147.492	0
bin	147.52533333333	0
bin	147.55866666667	0
bin	147.592	0
bin	147.62533333333	0
bin	147.65866666667	0
bin	147.692	0
bin	147.72533333333	0
bin	147.75866666667	0
bin	147.792	1
bin	147.82533333333	0
bin	147.85866666667	0
bin	147.892	0
bin	147.92533333333	0
bin	147.95866666667	0
bin	147.992	0
bin	148.02533333333	0
bin	148.05866666667	0
bin	148.092	0
bin	148.12533333333	0
bin	148.15866666667	0
bin	148.192	0
bin	148.22533333333	0
bin	148.25866666667	0
bin	148.292	0
statistic RandomGeometricGraph.rgnv[22] 	arrivalPerc:histogram
field count 1
field mean 1
field stddev nan
field sum 1
field sqrsum 1
field min 1
field max 1
attr interpolationmode  none
attr source  count(arrival)
attr title  "arrival perc, histogram"
bin	-INF	0
bin	0	0
bin	1	1
bin	2	0
statistic RandomGeometricGraph.rgnv[23] 	arrivalTime:histogram
field count 1
field mean 25.462
field stddev nan
field sum 25.462
field sqrsum 648.313444
field min 25.462
field max 25.462
attr interpolationmode  none
attr source  arrivalTime
attr title  "arrival time, histogram"
bin	-INF	0
bin	24.962	0
bin	24.995333333333	0
bin	25.028666666667	0
bin	25.062	0
bin	25.095333333333	0
bin	25.128666666667	0
bin	25.162	0
bin	25.195333333333	0
bin	25.228666666667	0
bin	25.262	0
bin	25.295333333333	0
bin	25.328666666667	0
bin	25.362	0
bin	25.395333333333	0
bin	25.428666666667	0
bin	25.462	1
bin	25.495333333333	0
bin	25.528666666667	0
bin	25.562	0
bin	25.595333333333	0
bin	25.628666666667	0
bin	25.662	0
bin	25.695333333333	0
bin	25.728666666667	0
bin	25.762	0
bin	25.795333333333	0
bin	25.828666666667	0
bin	25.862	0
bin	25.895333333333	0
bin	25.928666666667	0
bin	25.962	0
statistic RandomGeometricGraph.rgnv[23] 	arrivalPerc:histogram
field count 1
field mean 1
field stddev nan
field sum 1
field sqrsum 1
field min 1
field max 1
attr interpolationmode  none
attr source  count(arrival)
attr title  "arrival perc, histogram"
bin	-INF	0
bin	0	0
bin	1	1
bin	2	0
statistic RandomGeometricGraph.rgnv[24] 	arrivalTime:histogram
field count 1
field mean 199.505
field stddev nan
field sum 199.505
field sqrsum 39802.245025
field min 199.505
field max 199.505
attr interpolationmode  none
attr source  arrivalTime
attr title  "arrival time, histogram"
bin	-INF	0
bin	199.005	0
bin	199.03833333333	0
bin	199.07166666667	0
bin	199.105	0
bin	199.13833333333	0
bin	199.17166666667	0
bin	199.205	0
bin	199.23833333333	0
bin	199.27166666667	0
bin	199.305	0
bin	199.33833333333	0
bin	199.37166666667	0
bin	199.405	0
bin	199.43833333333	0
bin	199.47166666667	0
bin	199.505	1
bin	199.53833333333	0
bin	199.57166666667	0
bin	199.605	0
bin	199.63833333333	0
bin	199.67166666667	0
bin	199.705	0
bin	199.73833333333	0
bin	199.77166666667	0
bin	199.805	0
bin	199.83833333333	0
bin	199.87166666667	0
bin	199.905	0
bin	199.93833333333	0
bin	199.97166666667	0
bin	200.005	0
statistic RandomGeometricGraph.rgnv[24] 	arrivalPerc:histogram
field count 1
field mean 1
field stddev nan
field sum 1
field sqrsum 1
field min 1
field max 1
attr interpolationmode  none
attr source  count(arrival)
attr title  "arrival perc, histogram"
bin	-INF	0
bin	0	0
bin	1	1
bin	2	0
statistic RandomGeometricGraph.rgnv[25] 	arrivalTime:histogram
field count 1
field mean 42.703
field stddev nan
field sum 42.703
field sqrsum 1823.546209
field min 42.703
field max 42.703
attr interpolationmode  none
attr source  arrivalTime
attr title  "arrival time, histogram"
bin	-INF	0
bin	42.203	0
bin	42.236333333333	0
bin	42.269666666667	0
bin	42.303	0
bin	42.336333333333	0
bin	42.369666666667	0
bin	42.403	0
bin	42.436333333333	0
bin	42.469666666667	0
bin	42.503	0
bin	42.536333333333	0
bin	42.569666666667	0
bin	42.603	0
bin	42.636333333333	0
bin	42.669666666667	0
bin	42.703	1
bin	42.736333333333	0
bin	42.769666666667	0
bin	42.803	0
bin	42.836333333333	0
bin	42.869666666667	0
bin	42.903	0
bin	42.936333333333	0
bin	42.969666666667	0
bin	43.003	0
bin	43.036333333333	0
bin	43.069666666667	0
bin	43.103	0
bin	43.136333333333	0
bin	43.169666666667	0
bin	43.203	0
statistic RandomGeometricGraph.rgnv[25] 	arrivalPerc:histogram
field count 1
field mean 1
field stddev nan
field sum 1
field sqrsum 1
field min 1
field max 1
attr interpolationmode  none
attr source  count(arrival)
attr title  "arrival perc, histogram"
bin	-INF	0
bin	0	0
bin	1	1
bin	2	0
statistic RandomGeometricGraph.rgnv[26] 	arrivalTime:histogram
field count 1
field mean 344.066
field stddev nan
field sum 344.066
field sqrsum 118381.412356
field min 344.066
field max 344.066
attr interpolationmode  none
attr source  arrivalTime
attr title  "arrival time, histogram"
bin	-INF	0
bin	343.566	0
bin	343.59933333333	0
bin	343.63266666667	0
bin	343.666	0
bin	343.69933333333	0
bin	343.73266666667	0
bin	343.766	0
bin	343.79933333333	0
bin	343.83266666667	0
bin	343.866	0
bin	343.89933333333	0
bin	343.93266666667	0
bin	343.966	0
bin	343.99933333333	0
bin	344.03266666667	0
bin	344.066	1
bin	344.09933333333	0
bin	344.13266666667	0
bin	344.166	0
bin	344.19933333333	0
bin	344.23266666667	0
bin	344.266	0
bin	344.29933333333	0
bin	344.33266666667	0
bin	344.366	0
bin	344.39933333333	0
bin	344.43266666667	0
bin	344.466	0
bin	344.49933333333	0
bin	344.53266666667	0
bin	344.566	0
statistic RandomGeometricGraph.rgnv[26] 	arrivalPerc:histogram
field count 1
field mean 1
field stddev nan
field sum 1
field sqrsum 1
field min 1
field max 1
attr interpolationmode  none
attr source  count(arrival)
attr title  "arrival perc, histogram"
bin	-INF	0
bin	0	0
bin	1	1
bin	2	0
statistic RandomGeometricGraph.rgnv[27] 	arrivalTime:histogram
field count 1
field mean 290.142
field stddev nan
field sum 290.142
field sqrsum 84182.380164
field min 290.142
field max 290.142
attr interpolationmode  none
attr source  arrivalTime
attr title  "arrival time, histogram"
bin	-INF	0
bin	289.642	0
bin	289.67533333333	0
bin	289.70866666667	0
bin	289.742	0
bin	289.77533333333	0
bin	289.80866666667	0
bin	289.842	0
bin	289.87533333333	0
bin	289.90866666667	0
bin	289.942	0
bin	289.97533333333	0
bin	290.00866666667	0
bin	290.042	0
bin	290.07533333333	0
bin	290.10866666667	0
bin	290.142	1
bin	290.17533333333	0
bin	290.20866666667	0
bin	290.242	0
bin	290.27533333333	0
bin	290.30866666667	0
bin	290.342	0
bin	290.37533333333	0
bin	290.40866666667	0
bin	290.442	0
bin	290.47533333333	0
bin	290.50866666667	0
bin	290.542	0
bin	290.57533333333	0
bin	290.60866666667	0
bin	290.642	0
statistic RandomGeometricGraph.rgnv[27] 	arrivalPerc:histogram
field count 1
field mean 1
field stddev nan
field sum 1
field sqrsum 1
field min 1
field max 1
attr interpolationmode  none
attr source  count(arrival)
attr title  "arrival perc, histogram"
bin	-INF	0
bin	0	0
bin	1	1
bin	2	0
statistic RandomGeometricGraph.rgnv[28] 	arrivalTime:histogram
field count 1
field mean 262.881
field stddev nan
field sum 262.881
field sqrsum 69106.420161
field min 262.881
field max 262.881
attr interpolationmode  none
attr source  arrivalTime
attr title  "arrival time, histogram"
bin	-INF	0
bin	262.381	0
bin	262.41433333333	0
bin	262.44766666667	0
bin	262.481	0
bin	262.51433333333	0
bin	262.54766666667	0
bin	262.581	0
bin	262.61433333333	0
bin	262.64766666667	0
bin	262.681	0
bin	262.71433333333	0
bin	262.74766666667	0
bin	262.781	0
bin	262.81433333333	0
bin	262.84766666667	0
bin	262.881	1
bin	262.91433333333	0
bin	262.94766666667	0
bin	262.981	0
bin	263.01433333333	0
bin	263.04766666667	0
bin	263.081	0
bin	263.11433333333	0
bin	263.14766666667	0
bin	263.181	0
bin	263.21433333333	0
bin	263.24766666667	0
bin	263.281	0
bin	263.31433333333	0
bin	263.34766666667	0
bin	263.381	0
statistic RandomGeometricGraph.rgnv[28] 	arrivalPerc:histogram
field count 1
field mean 1
field stddev nan
field sum 1
field sqrsum 1
field min 1
field max 1
attr interpolationmode  none
attr source  count(arrival)
attr title  "arrival perc, histogram"
bin	-INF	0
bin	0	0
bin	1	1
bin	2	0
statistic RandomGeometricGraph.rgnv[29] 	arrivalTime:histogram
field count 1
field mean 162.812
field stddev nan
field sum 162.812
field sqrsum 26507.747344
field min 162.812
field max 162.812
attr interpolationmode  none
attr source  arrivalTime
attr title  "arrival time, histogram"
bin	-INF	0
bin	162.312	0
bin	162.34533333333	0
bin	162.37866666667	0
bin	162.412	0
bin	162.44533333333	0
bin	162.47866666667	0
bin	162.512	0
bin	162.54533333333	0
bin	162.57866666667	0
bin	162.612	0
bin	162.64533333333	0
bin	162.67866666667	0
bin	162.712	0
bin	162.74533333333	0
bin	162.77866666667	0
bin	162.812	1
bin	162.84533333333	0
bin	162.87866666667	0
bin	162.912	0
bin	162.94533333333	0
bin	162.97866666667	0
bin	163.012	0
bin	163.04533333333	0
bin	163.07866666667	0
bin	163.112	0
bin	163.14533333333	0
bin	163.17866666667	0
bin	163.212	0
bin	163.24533333333	0
bin	163.27866666667	0
bin	163.312	0
statistic RandomGeometricGraph.rgnv[29] 	arrivalPerc:histogram
field count 1
field mean 1
field stddev nan
field sum 1
field sqrsum 1
field min 1
field max 1
attr interpolationmode  none
attr source  count(arrival)
attr title  "arrival perc, histogram"
bin	-INF	0
bin	0	0
bin	1	1
bin	2	0
statistic RandomGeometricGraph.rgnv[30] 	arrivalTime:histogram
field count 1
field mean 213.957
field stddev nan
field sum 213.957
field sqrsum 45777.597849
field min 213.957
field max 213.957
attr interpolationmode  none
attr source  arrivalTime
attr title  "arrival time, histogram"
bin	-INF	0
bin	213.457	0
bin	213.49033333333	0
bin	213.52366666667	0
bin	213.557	0
bin	213.59033333333	0
bin	213.62366666667	0
bin	213.657	0
bin	213.69033333333	0
bin	213.72366666667	0
bin	213.757	0
bin	213.79033333333	0
bin	213.82366666667	0
bin	213.857	0
bin	213.89033333333	0
bin	213.92366666667	0
bin	213.957	1
bin	213.99033333333	0
bin	214.02366666667	0
bin	214.057	0
bin	214.09033333333	0
bin	214.12366666667	0
bin	214.157	0
bin	214.19033333333	0
bin	214.22366666667	0
bin	214.257	0
bin	214.29033333333	0
bin	214.32366666667	0
bin	214.357	0
bin	214.39033333333	0
bin	214.42366666667	0
bin	214.457	0
statistic RandomGeometricGraph.rgnv[30] 	arrivalPerc:histogram
field count 1
field mean 1
field stddev nan
field sum 1
field sqrsum 1
field min 1
field max 1
attr interpolationmode  none
attr source  count(arrival)
attr title  "arrival perc, histogram"
bin	-INF	0
bin	0	0
bin	1	1
bin	2	0
statistic RandomGeometricGraph.rgnv[31] 	arrivalTime:histogram
field count 1
field mean 67.165
field stddev nan
field sum 67.165
field sqrsum 4511.137225
field min 67.165
field max 67.165
attr interpolationmode  none
attr source  arrivalTime
attr title  "arrival time, histogram"
bin	-INF	0
bin	66.665	0
bin	66.698333333333	0
bin	66.731666666667	0
bin	66.765	0
bin	66.798333333333	0
bin	66.831666666667	0
bin	66.865	0
bin	66.898333333333	0
bin	66.931666666667	0
bin	66.965	0
bin	66.998333333333	0
bin	67.031666666667	0
bin	67.065	0
bin	67.098333333333	0
bin	67.131666666667	0
bin	67.165	1
bin	67.198333333333	0
bin	67.231666666667	0
bin	67.265	0
bin	67.298333333333	0
bin	67.331666666667	0
bin	67.365	0
bin	67.398333333333	0
bin	67.431666666667	0
bin	67.465	0
bin	67.498333333333	0
bin	67.531666666667	0
bin	67.565	0
bin	67.598333333333	0
bin	67.631666666667	0
bin	67.665	0
statistic RandomGeometricGraph.rgnv[31] 	arrivalPerc:histogram
field count 1
field mean 1
field stddev nan
field sum 1
field sqrsum 1
field min 1
field max 1
attr interpolationmode  none
attr source  count(arrival)
attr title  "arrival perc, histogram"
bin	-INF	0
bin	0	0
bin	1	1
bin	2	0
statistic RandomGeometricGraph.rgnv[32] 	arrivalTime:histogram
field count 1
field mean 226.198
field stddev nan
field sum 226.198
field sqrsum 51165.535204
field min 226.198
field max 226.198
attr interpolationmode  none
attr source  arrivalTime
attr title  "arrival time, histogram"
bin	-INF	0
bin	225.698	0
bin	225.73133333333	0
bin	225.76466666667	0
bin	225.798	0
bin	225.83133333333	0
bin	225.86466666667	0
bin	225.898	0
bin	225.93133333333	0
bin	225.96466666667	0
bin	225.998	0
bin	226.03133333333	0
bin	226.06466666667	0
bin	226.098	0
bin	226.13133333333	0
bin	226.16466666667	0
bin	226.198	1
bin	226.23133333333	0
bin	226.26466666667	0
bin	226.298	0
bin	226.33133333333	0
bin	226.36466666667	0
bin	226.398	0
bin	226.43133333333	0
bin	226.46466666667	0
bin	226.498	0
bin	226.53133333333	0
bin	226.56466666667	0
bin	226.598	0
bin	226.63133333333	0
bin	226.66466666667	0
bin	226.698	0
statistic RandomGeometricGraph.rgnv[32] 	arrivalPerc:histogram
field count 1
field mean 1
field stddev nan
field sum 1
field sqrsum 1
field min 1
field max 1
attr interpolationmode  none
attr source  count(arrival)
attr title  "arrival perc, histogram"
bin	-INF	0
bin	0	0
bin	1	1
bin	2	0
statistic RandomGeometricGraph.rgnv[33] 	arrivalTime:histogram
field count 1
field mean 182.284
field stddev nan
field sum 182.284
field sqrsum 33227.456656
field min 182.284
field max 182.284
attr interpolationmode  none
attr source  arrivalTime
attr title  "arrival time, histogram"
bin	-INF	0
bin	181.784	0
bin	181.81733333333	0
bin	181.85066666667	0
bin	181.884	0
bin	181.91733333333	0
bin	181.95066666667	0
bin	181.984	0
bin	182.01733333333	0
bin	182.05066666667	0
bin	182.084	0
bin	182.11733333333	0
bin	182.15066666667	0
bin	182.184	0
bin	182.21733333333	0
bin	182.25066666667	0
bin	182.284	1
bin	182.31733333333	0
bin	182.35066666667	0
bin	182.384	0
bin	182.41733333333	0
bin	182.45066666667	0
bin	182.484	0
bin	182.51733333333	0
bin	182.55066666667	0
bin	182.584	0
bin	182.61733333333	0
bin	182.65066666667	0
bin	182.684	0
bin	182.71733333333	0
bin	182.75066666667	0
bin	182.784	0
statistic RandomGeometricGraph.rgnv[33] 	arrivalPerc:histogram
field count 1
field mean 1
field stddev nan
field sum 1
field sqrsum 1
field min 1
field max 1
attr interpolationmode  none
attr source  count(arrival)
attr title  "arrival perc, histogram"
bin	-INF	0
bin	0	0
bin	1	1
bin	2	0
statistic RandomGeometricGraph.rgnv[34] 	arrivalTime:histogram
field count 1
field mean 157.802
field stddev nan
field sum 157.802
field sqrsum 24901.471204
field min 157.802
field max 157.802
attr interpolationmode  none
attr source  arrivalTime
attr title  "arrival time, histogram"
bin	-INF	0
bin	157.302	0
bin	157.33533333333	0
bin	157.36866666667	0
bin	157.402	0
bin	157.43533333333	0
bin	157.46866666667	0
bin	157.502	0
bin	157.53533333333	0
bin	157.56866666667	0
bin	157.602	0
bin	157.63533333333	0
bin	157.66866666667	0
bin	157.702	0
bin	157.73533333333	0
bin	157.76866666667	0
bin	157.802	1
bin	157.83533333333	0
bin	157.86866666667	0
bin	157.902	0
bin	157.93533333333	0
bin	157.96866666667	0
bin	158.002	0
bin	158.03533333333	0
bin	158.06866666667	0
bin	158.102	0
bin	158.13533333333	0
bin	158.16866666667	0
bin	158.202	0
bin	158.23533333333	0
bin	158.26866666667	0
bin	158.302	0
statistic RandomGeometricGraph.rgnv[34] 	arrivalPerc:histogram
field count 1
field mean 1
field stddev nan
field sum 1
field sqrsum 1
field min 1
field max 1
attr interpolationmode  none
attr source  count(arrival)
attr title  "arrival perc, histogram"
bin	-INF	0
bin	0	0
bin	1	1
bin	2	0
statistic RandomGeometricGraph.rgnv[35] 	arrivalTime:histogram
field count 1
field mean 37.693
field stddev nan
field sum 37.693
field sqrsum 1420.762249
field min 37.693
field max 37.693
attr interpolationmode  none
attr source  arrivalTime
attr title  "arrival time, histogram"
bin	-INF	0
bin	37.193	0
bin	37.226333333333	0
bin	37.259666666667	0
bin	37.293	0
bin	37.326333333333	0
bin	37.359666666667	0
bin	37.393	0
bin	37.426333333333	0
bin	37.459666666667	0
bin	37.493	0
bin	37.526333333333	0
bin	37.559666666667	0
bin	37.593	0
bin	37.626333333333	0
bin	37.659666666667	0
bin	37.693	1
bin	37.726333333333	0
bin	37.759666666667	0
bin	37.793	0
bin	37.826333333333	0
bin	37.859666666667	0
bin	37.893	0
bin	37.926333333333	0
bin	37.959666666667	0
bin	37.993	0
bin	38.026333333333	0
bin	38.059666666667	0
bin	38.093	0
bin	38.126333333333	0
bin	38.159666666667	0
bin	38.193	0
statistic RandomGeometricGraph.rgnv[35] 	arrivalPerc:histogram
field count 1
field mean 1
field stddev nan
field sum 1
field sqrsum 1
field min 1
field max 1
attr interpolationmode  none
attr source  count(arrival)
attr title  "arrival perc, histogram"
bin	-INF	0
bin	0	0
bin	1	1
bin	2	0
statistic RandomGeometricGraph.rgnv[36] 	arrivalTime:histogram
field count 1
field mean 258.439
field stddev nan
field sum 258.439
field sqrsum 66790.716721
field min 258.439
field max 258.439
attr interpolationmode  none
attr source  arrivalTime
attr title  "arrival time, histogram"
bin	-INF	0
bin	257.939	0
bin	257.97233333333	0
bin	258.00566666667	0
bin	258.039	0
bin	258.07233333333	0
bin	258.10566666667	0
bin	258.139	0
bin	258.17233333333	0
bin	258.20566666667	0
bin	258.239	0
bin	258.27233333333	0
bin	258.30566666667	0
bin	258.339	0
bin	258.37233333333	0
bin	258.40566666667	0
bin	258.439	1
bin	258.47233333333	0
bin	258.50566666667	0
bin	258.539	0
bin	258.57233333333	0
bin	258.60566666667	0
bin	258.639	0
bin	258.67233333333	0
bin	258.70566666667	0
bin	258.739	0
bin	258.77233333333	0
bin	258.80566666667	0
bin	258.839	0
bin	258.87233333333	0
bin	258.90566666667	0
bin	258.939	0
statistic RandomGeometricGraph.rgnv[36] 	arrivalPerc:histogram
field count 1
field mean 1
field stddev nan
field sum 1
field sqrsum 1
field min 1
field max 1
attr interpolationmode  none
attr source  count(arrival)
attr title  "arrival perc, histogram"
bin	-INF	0
bin	0	0
bin	1	1
bin	2	0
statistic RandomGeometricGraph.rgnv[37] 	arrivalTime:histogram
field count 1
field mean 182.274
field stddev nan
field sum 182.274
field sqrsum 33223.811076
field min 182.274
field max 182.274
attr interpolationmode  none
attr source  arrivalTime
attr title  "arrival time, histogram"
bin	-INF	0
bin	181.774	0
bin	181.80733333333	0
bin	181.84066666667	0
bin	181.874	0
bin	181.90733333333	0
bin	181.94066666667	0
bin	181.974	0
bin	182.00733333333	0
bin	182.04066666667	0
bin	182.074	0
bin	182.10733333333	0
bin	182.14066666667	0
bin	182.174	0
bin	182.20733333333	0
bin	182.24066666667	0
bin	182.274	1
bin	182.30733333333	0
bin	182.34066666667	0
bin	182.374	0
bin	182.40733333333	0
bin	182.44066666667	0
bin	182.474	0
bin	182.50733333333	0
bin	182.54066666667	0
bin	182.574	0
bin	182.60733333333	0
bin	182.64066666667	0
bin	182.674	0
bin	182.70733333333	0
bin	182.74066666667	0
bin	182.774	0
statistic RandomGeometricGraph.rgnv[37] 	arrivalPerc:histogram
field count 1
field mean 1
field stddev nan
field sum 1
field sqrsum 1
field min 1
field max 1
attr interpolationmode  none
attr source  count(arrival)
attr title  "arrival perc, histogram"
bin	-INF	0
bin	0	0
bin	1	1
bin	2	0
statistic RandomGeometricGraph.rgnv[38] 	arrivalTime:histogram
field count 1
field mean 272.891
field stddev nan
field sum 272.891
field sqrsum 74469.497881
field min 272.891
field max 272.891
attr interpolationmode  none
attr source  arrivalTime
attr title  "arrival time, histogram"
bin	-INF	0
bin	272.391	0
bin	272.42433333333	0
bin	272.45766666667	0
bin	272.491	0
bin	272.52433333333	0
bin	272.55766666667	0
bin	272.591	0
bin	272.62433333333	0
bin	272.65766666667	0
bin	272.691	0
bin	272.72433333333	0
bin	272.75766666667	0
bin	272.791	0
bin	272.82433333333	0
bin	272.85766666667	0
bin	272.891	1
bin	272.92433333333	0
bin	272.95766666667	0
bin	272.991	0
bin	273.02433333333	0
bin	273.05766666667	0
bin	273.091	0
bin	273.12433333333	0
bin	273.15766666667	0
bin	273.191	0
bin	273.22433333333	0
bin	273.25766666667	0
bin	273.291	0
bin	273.32433333333	0
bin	273.35766666667	0
bin	273.391	0
statistic RandomGeometricGraph.rgnv[38] 	arrivalPerc:histogram
field count 1
field mean 1
field stddev nan
field sum 1
field sqrsum 1
field min 1
field max 1
attr interpolationmode  none
attr source  count(arrival)
attr title  "arrival perc, histogram"
bin	-INF	0
bin	0	0
bin	1	1
bin	2	0
statistic RandomGeometricGraph.rgnv[39] 	arrivalTime:histogram
field count 1
field mean 236.198
field stddev nan
field sum 236.198
field sqrsum 55789.495204
field min 236.198
field max 236.198
attr interpolationmode  none
attr source  arrivalTime
attr title  "arrival time, histogram"
bin	-INF	0
bin	235.698	0
bin	235.73133333333	0
bin	235.76466666667	0
bin	235.798	0
bin	235.83133333333	0
bin	235.86466666667	0
bin	235.898	0
bin	235.93133333333	0
bin	235.96466666667	0
bin	235.998	0
bin	236.03133333333	0
bin	236.06466666667	0
bin	236.098	0
bin	236.13133333333	0
bin	236.16466666667	0
bin	236.198	1
bin	236.23133333333	0
bin	236.26466666667	0
bin	236.298	0
bin	236.33133333333	0
bin	236.36466666667	0
bin	236.398	0
bin	236.43133333333	0
bin	236.46466666667	0
bin	236.498	0
bin	236.53133333333	0
bin	236.56466666667	0
bin	236.598	0
bin	236.63133333333	0
bin	236.66466666667	0
bin	236.698	0
statistic RandomGeometricGraph.rgnv[39] 	arrivalPerc:histogram
field count 1
field mean 1
field stddev nan
field sum 1
field sqrsum 1
field min 1
field max 1
attr interpolationmode  none
attr source  count(arrival)
attr title  "arrival perc, histogram"
bin	-INF	0
bin	0	0
bin	1	1
bin	2	0
statistic RandomGeometricGraph.rgnv[40] 	arrivalTime:histogram
field count 1
field mean 182.284
field stddev nan
field sum 182.284
field sqrsum 33227.456656
field min 182.284
field max 182.284
attr interpolationmode  none
attr source  arrivalTime
attr title  "arrival time, histogram"
bin	-INF	0
bin	181.784	0
bin	181.81733333333	0
bin	181.85066666667	0
bin	181.884	0
bin	181.91733333333	0
bin	181.95066666667	0
bin	181.984	0
bin	182.01733333333	0
bin	182.05066666667	0
bin	182.084	0
bin	182.11733333333	0
bin	182.15066666667	0
bin	182.184	0
bin	182.21733333333	0
bin	182.25066666667	0
bin	182.284	1
bin	182.31733333333	0
bin	182.35066666667	0
bin	182.384	0
bin	182.41733333333	0
bin	182.45066666667	0
bin	182.484	0
bin	182.51733333333	0
bin	182.55066666667	0
bin	182.584	0
bin	182.61733333333	0
bin	182.65066666667	0
bin	182.684	0
bin	182.71733333333	0
bin	182.75066666667	0
bin	182.784	0
statistic RandomGeometricGraph.rgnv[40] 	arrivalPerc:histogram
field count 1
field mean 1
field stddev nan
field sum 1
field sqrsum 1
field min 1
field max 1
attr interpolationmode  none
attr source  count(arrival)
attr title  "arrival perc, histogram"
bin	-INF	0
bin	0	0
bin	1	1
bin	2	0
statistic RandomGeometricGraph.rgnv[41] 	arrivalTime:histogram
field count 1
field mean 152.812
field stddev nan
field sum 152.812
field sqrsum 23351.507344
field min 152.812
field max 152.812
attr interpolationmode  none
attr source  arrivalTime
attr title  "arrival time, histogram"
bin	-INF	0
bin	152.312	0
bin	152.34533333333	0
bin	152.37866666667	0
bin	152.412	0
bin	152.44533333333	0
bin	152.47866666667	0
bin	152.512	0
bin	152.54533333333	0
bin	152.57866666667	0
bin	152.612	0
bin	152.64533333333	0
bin	152.67866666667	0
bin	152.712	0
bin	152.74533333333	0
bin	152.77866666667	0
bin	152.812	1
bin	152.84533333333	0
bin	152.87866666667	0
bin	152.912	0
bin	152.94533333333	0
bin	152.97866666667	0
bin	153.012	0
bin	153.04533333333	0
bin	153.07866666667	0
bin	153.112	0
bin	153.14533333333	0
bin	153.17866666667	0
bin	153.212	0
bin	153.24533333333	0
bin	153.27866666667	0
bin	153.312	0
statistic RandomGeometricGraph.rgnv[41] 	arrivalPerc:histogram
field count 1
field mean 1
field stddev nan
field sum 1
field sqrsum 1
field min 1
field max 1
attr interpolationmode  none
attr source  count(arrival)
attr title  "arrival perc, histogram"
bin	-INF	0
bin	0	0
bin	1	1
bin	2	0
statistic RandomGeometricGraph.rgnv[42] 	arrivalTime:histogram
field count 1
field mean 260.66
field stddev nan
field sum 260.66
field sqrsum 67943.6356
field min 260.66
field max 260.66
attr interpolationmode  none
attr source  arrivalTime
attr title  "arrival time, histogram"
bin	-INF	0
bin	260.16	0
bin	260.19333333333	0
bin	260.22666666667	0
bin	260.26	0
bin	260.29333333333	0
bin	260.32666666667	0
bin	260.36	0
bin	260.39333333333	0
bin	260.42666666667	0
bin	260.46	0
bin	260.49333333333	0
bin	260.52666666667	0
bin	260.56	0
bin	260.59333333333	0
bin	260.62666666667	0
bin	260.66	1
bin	260.69333333333	0
bin	260.72666666667	0
bin	260.76	0
bin	260.79333333333	0
bin	260.82666666667	0
bin	260.86	0
bin	260.89333333333	0
bin	260.92666666667	0
bin	260.96	0
bin	260.99333333333	0
bin	261.02666666667	0
bin	261.06	0
bin	261.09333333333	0
bin	261.12666666667	0
bin	261.16	0
statistic RandomGeometricGraph.rgnv[42] 	arrivalPerc:histogram
field count 1
field mean 1
field stddev nan
field sum 1
field sqrsum 1
field min 1
field max 1
attr interpolationmode  none
attr source  count(arrival)
attr title  "arrival perc, histogram"
bin	-INF	0
bin	0	0
bin	1	1
bin	2	0
statistic RandomGeometricGraph.rgnv[43] 	arrivalTime:histogram
field count 1
field mean 84.406
field stddev nan
field sum 84.406
field sqrsum 7124.372836
field min 84.406
field max 84.406
attr interpolationmode  none
attr source  arrivalTime
attr title  "arrival time, histogram"
bin	-INF	0
bin	83.906	0
bin	83.939333333333	0
bin	83.972666666667	0
bin	84.006	0
bin	84.039333333333	0
bin	84.072666666667	0
bin	84.106	0
bin	84.139333333333	0
bin	84.172666666667	0
bin	84.206	0
bin	84.239333333333	0
bin	84.272666666667	0
bin	84.306	0
bin	84.339333333333	0
bin	84.372666666667	0
bin	84.406	1
bin	84.439333333333	0
bin	84.472666666667	0
bin	84.506	0
bin	84.539333333333	0
bin	84.572666666667	0
bin	84.606	0
bin	84.639333333333	0
bin	84.672666666667	0
bin	84.706	0
bin	84.739333333333	0
bin	84.772666666667	0
bin	84.806	0
bin	84.839333333333	0
bin	84.872666666667	0
bin	84.906	0
statistic RandomGeometricGraph.rgnv[43] 	arrivalPerc:histogram
field count 1
field mean 1
field stddev nan
field sum 1
field sqrsum 1
field min 1
field max 1
attr interpolationmode  none
attr source  count(arrival)
attr title  "arrival perc, histogram"
bin	-INF	0
bin	0	0
bin	1	1
bin	2	0
statistic RandomGeometricGraph.rgnv[44] 	arrivalTime:histogram
field count 1
field mean 218.967
field stddev nan
field sum 218.967
field sqrsum 47946.547089
field min 218.967
field max 218.967
attr interpolationmode  none
attr source  arrivalTime
attr title  "arrival time, histogram"
bin	-INF	0
bin	218.467	0
bin	218.50033333333	0
bin	218.53366666667	0
bin	218.567	0
bin	218.60033333333	0
bin	218.63366666667	0
bin	218.667	0
bin	218.70033333333	0
bin	218.73366666667	0
bin	218.767	0
bin	218.80033333333	0
bin	218.83366666667	0
bin	218.867	0
bin	218.90033333333	0
bin	218.93366666667	0
bin	218.967	1
bin	219.00033333333	0
bin	219.03366666667	0
bin	219.067	0
bin	219.10033333333	0
bin	219.13366666667	0
bin	219.167	0
bin	219.20033333333	0
bin	219.23366666667	0
bin	219.267	0
bin	219.30033333333	0
bin	219.33366666667	0
bin	219.367	0
bin	219.40033333333	0
bin	219.43366666667	0
bin	219.467	0
statistic RandomGeometricGraph.rgnv[44] 	arrivalPerc:histogram
field count 1
field mean 1
field stddev nan
field sum 1
field sqrsum 1
field min 1
field max 1
attr interpolationmode  none
attr source  count(arrival)
attr title  "arrival perc, histogram"
bin	-INF	0
bin	0	0
bin	1	1
bin	2	0
statistic RandomGeometricGraph.rgnv[45] 	arrivalTime:histogram
field count 1
field mean 74.396
field stddev nan
field sum 74.396
field sqrsum 5534.764816
field min 74.396
field max 74.396
attr interpolationmode  none
attr source  arrivalTime
attr title  "arrival time, histogram"
bin	-INF	0
bin	73.896	0
bin	73.929333333333	0
bin	73.962666666667	0
bin	73.996	0
bin	74.029333333333	0
bin	74.062666666667	0
bin	74.096	0
bin	74.129333333333	0
bin	74.162666666667	0
bin	74.196	0
bin	74.229333333333	0
bin	74.262666666667	0
bin	74.296	0
bin	74.329333333333	0
bin	74.362666666667	0
bin	74.396	1
bin	74.429333333333	0
bin	74.462666666667	0
bin	74.496	0
bin	74.529333333333	0
bin	74.562666666667	0
bin	74.596	0
bin	74.629333333333	0
bin	74.662666666667	0
bin	74.696	0
bin	74.729333333333	0
bin	74.762666666667	0
bin	74.796	0
bin	74.829333333333	0
bin	74.862666666667	0
bin	74.896	0
statistic RandomGeometricGraph.rgnv[45] 	arrivalPerc:histogram
field count 1
field mean 1
field stddev nan
field sum 1
field sqrsum 1
field min 1
field max 1
attr interpolationmode  none
attr source  count(arrival)
attr title  "arrival perc, histogram"
bin	-INF	0
bin	0	0
bin	1	1
bin	2	0
statistic RandomGeometricGraph.rgnv[46] 	arrivalTime:histogram
field count 1
field mean 157.802
field stddev nan
field sum 157.802
field sqrsum 24901.471204
field min 157.802
field max 157.802
attr interpolationmode  none
attr source  arrivalTime
attr title  "arrival time, histogram"
bin	-INF	0
bin	157.302	0
bin	157.33533333333	0
bin	157.36866666667	0
bin	157.402	0
bin	157.43533333333	0
bin	157.46866666667	0
bin	157.502	0
bin	157.53533333333	0
bin	157.56866666667	0
bin	157.602	0
bin	157.63533333333	0
bin	157.66866666667	0
bin	157.702	0
bin	157.73533333333	0
bin	157.76866666667	0
bin	157.802	1
bin	157.83533333333	0
bin	157.86866666667	0
bin	157.902	0
bin	157.93533333333	0
bin	157.96866666667	0
bin	158.002	0
bin	158.03533333333	0
bin	158.06866666667	0
bin	158.102	0
bin	158.13533333333	0
bin	158.16866666667	0
bin	158.202	0
bin	158.23533333333	0
bin	158.26866666667	0
bin	158.302	0
statistic RandomGeometricGraph.rgnv[46] 	arrivalPerc:histogram
field count 1
field mean 1
field stddev nan
field sum 1
field sqrsum 1
field min 1
field max 1
attr interpolationmode  none
attr source  count(arrival)
attr title  "arrival perc, histogram"
bin	-INF	0
bin	0	0
bin	1	1
bin	2	0
statistic RandomGeometricGraph.rgnv[47] 	arrivalTime:histogram
field count 1
field mean 206.726
field stddev nan
field sum 206.726
field sqrsum 42735.639076
field min 206.726
field max 206.726
attr interpolationmode  none
attr source  arrivalTime
attr title  "arrival time, histogram"
bin	-INF	0
bin	206.226	0
bin	206.25933333333	0
bin	206.29266666667	0
bin	206.326	0
bin	206.35933333333	0
bin	206.39266666667	0
bin	206.426	0
bin	206.45933333333	0
bin	206.49266666667	0
bin	206.526	0
bin	206.55933333333	0
bin	206.59266666667	0
bin	206.626	0
bin	206.65933333333	0
bin	206.69266666667	0
bin	206.726	1
bin	206.75933333333	0
bin	206.79266666667	0
bin	206.826	0
bin	206.85933333333	0
bin	206.89266666667	0
bin	206.926	0
bin	206.95933333333	0
bin	206.99266666667	0
bin	207.026	0
bin	207.05933333333	0
bin	207.09266666667	0
bin	207.126	0
bin	207.15933333333	0
bin	207.19266666667	0
bin	207.226	0
statistic RandomGeometricGraph.rgnv[47] 	arrivalPerc:histogram
field count 1
field mean 1
field stddev nan
field sum 1
field sqrsum 1
field min 1
field max 1
attr interpolationmode  none
attr source  count(arrival)
attr title  "arrival perc, histogram"
bin	-INF	0
bin	0	0
bin	1	1
bin	2	0
statistic RandomGeometricGraph.rgnv[48] 	arrivalTime:histogram
field count 0
field mean nan
field stddev nan
field sum 0
field sqrsum 0
field min nan
field max nan
attr interpolationmode  none
attr source  arrivalTime
attr title  "arrival time, histogram"
bin	-INF	0
bin	-0.5	0
bin	-0.46666666666667	0
bin	-0.43333333333333	0
bin	-0.4	0
bin	-0.36666666666667	0
bin	-0.33333333333333	0
bin	-0.3	0
bin	-0.26666666666667	0
bin	-0.23333333333333	0
bin	-0.2	0
bin	-0.16666666666667	0
bin	-0.13333333333333	0
bin	-0.1	0
bin	-0.066666666666667	0
bin	-0.033333333333333	0
bin	0	0
bin	0.033333333333333	0
bin	0.066666666666667	0
bin	0.1	0
bin	0.13333333333333	0
bin	0.16666666666667	0
bin	0.2	0
bin	0.23333333333333	0
bin	0.26666666666667	0
bin	0.3	0
bin	0.33333333333333	0
bin	0.36666666666667	0
bin	0.4	0
bin	0.43333333333333	0
bin	0.46666666666667	0
bin	0.5	0
statistic RandomGeometricGraph.rgnv[48] 	arrivalPerc:histogram
field count 0
field mean nan
field stddev nan
field sum 0
field sqrsum 0
field min nan
field max nan
attr interpolationmode  none
attr source  count(arrival)
attr title  "arrival perc, histogram"
bin	-INF	0
bin	-0.5	0
bin	-0.46666666666667	0
bin	-0.43333333333333	0
bin	-0.4	0
bin	-0.36666666666667	0
bin	-0.33333333333333	0
bin	-0.3	0
bin	-0.26666666666667	0
bin	-0.23333333333333	0
bin	-0.2	0
bin	-0.16666666666667	0
bin	-0.13333333333333	0
bin	-0.1	0
bin	-0.066666666666667	0
bin	-0.033333333333333	0
bin	0	0
bin	0.033333333333333	0
bin	0.066666666666667	0
bin	0.1	0
bin	0.13333333333333	0
bin	0.16666666666667	0
bin	0.2	0
bin	0.23333333333333	0
bin	0.26666666666667	0
bin	0.3	0
bin	0.33333333333333	0
bin	0.36666666666667	0
bin	0.4	0
bin	0.43333333333333	0
bin	0.46666666666667	0
bin	0.5	0
statistic RandomGeometricGraph.rgnv[49] 	arrivalTime:histogram
field count 1
field mean 98.858
field stddev nan
field sum 98.858
field sqrsum 9772.904164
field min 98.858
field max 98.858
attr interpolationmode  none
attr source  arrivalTime
attr title  "arrival time, histogram"
bin	-INF	0
bin	98.358	0
bin	98.391333333333	0
bin	98.424666666667	0
bin	98.458	0
bin	98.491333333333	0
bin	98.524666666667	0
bin	98.558	0
bin	98.591333333333	0
bin	98.624666666667	0
bin	98.658	0
bin	98.691333333333	0
bin	98.724666666667	0
bin	98.758	0
bin	98.791333333333	0
bin	98.824666666667	0
bin	98.858	1
bin	98.891333333333	0
bin	98.924666666667	0
bin	98.958	0
bin	98.991333333333	0
bin	99.024666666667	0
bin	99.058	0
bin	99.091333333333	0
bin	99.124666666667	0
bin	99.158	0
bin	99.191333333333	0
bin	99.224666666667	0
bin	99.258	0
bin	99.291333333333	0
bin	99.324666666667	0
bin	99.358	0
statistic RandomGeometricGraph.rgnv[49] 	arrivalPerc:histogram
field count 1
field mean 1
field stddev nan
field sum 1
field sqrsum 1
field min 1
field max 1
attr interpolationmode  none
attr source  count(arrival)
attr title  "arrival perc, histogram"
bin	-INF	0
bin	0	0
bin	1	1
bin	2	0
statistic RandomGeometricGraph.rgnv[50] 	arrivalTime:histogram
field count 1
field mean 236.208
field stddev nan
field sum 236.208
field sqrsum 55794.219264
field min 236.208
field max 236.208
attr interpolationmode  none
attr source  arrivalTime
attr title  "arrival time, histogram"
bin	-INF	0
bin	235.708	0
bin	235.74133333333	0
bin	235.77466666667	0
bin	235.808	0
bin	235.84133333333	0
bin	235.87466666667	0
bin	235.908	0
bin	235.94133333333	0
bin	235.97466666667	0
bin	236.008	0
bin	236.04133333333	0
bin	236.07466666667	0
bin	236.108	0
bin	236.14133333333	0
bin	236.17466666667	0
bin	236.208	1
bin	236.24133333333	0
bin	236.27466666667	0
bin	236.308	0
bin	236.34133333333	0
bin	236.37466666667	0
bin	236.408	0
bin	236.44133333333	0
bin	236.47466666667	0
bin	236.508	0
bin	236.54133333333	0
bin	236.57466666667	0
bin	236.608	0
bin	236.64133333333	0
bin	236.67466666667	0
bin	236.708	0
statistic RandomGeometricGraph.rgnv[50] 	arrivalPerc:histogram
field count 1
field mean 1
field stddev nan
field sum 1
field sqrsum 1
field min 1
field max 1
attr interpolationmode  none
attr source  count(arrival)
attr title  "arrival perc, histogram"
bin	-INF	0
bin	0	0
bin	1	1
bin	2	0
statistic RandomGeometricGraph.rgnv[51] 	arrivalTime:histogram
field count 1
field mean 277.901
field stddev nan
field sum 277.901
field sqrsum 77228.965801
field min 277.901
field max 277.901
attr interpolationmode  none
attr source  arrivalTime
attr title  "arrival time, histogram"
bin	-INF	0
bin	277.401	0
bin	277.43433333333	0
bin	277.46766666667	0
bin	277.501	0
bin	277.53433333333	0
bin	277.56766666667	0
bin	277.601	0
bin	277.63433333333	0
bin	277.66766666667	0
bin	277.701	0
bin	277.73433333333	0
bin	277.76766666667	0
bin	277.801	0
bin	277.83433333333	0
bin	277.86766666667	0
bin	277.901	1
bin	277.93433333333	0
bin	277.96766666667	0
bin	278.001	0
bin	278.03433333333	0
bin	278.06766666667	0
bin	278.101	0
bin	278.13433333333	0
bin	278.16766666667	0
bin	278.201	0
bin	278.23433333333	0
bin	278.26766666667	0
bin	278.301	0
bin	278.33433333333	0
bin	278.36766666667	0
bin	278.401	0
statistic RandomGeometricGraph.rgnv[51] 	arrivalPerc:histogram
field count 1
field mean 1
field stddev nan
field sum 1
field sqrsum 1
field min 1
field max 1
attr interpolationmode  none
attr source  count(arrival)
attr title  "arrival perc, histogram"
bin	-INF	0
bin	0	0
bin	1	1
bin	2	0
statistic RandomGeometricGraph.rgnv[52] 	arrivalTime:histogram
field count 0
field mean nan
field stddev nan
field sum 0
field sqrsum 0
field min nan
field max nan
attr interpolationmode  none
attr source  arrivalTime
attr title  "arrival time, histogram"
bin	-INF	0
bin	-0.5	0
bin	-0.46666666666667	0
bin	-0.43333333333333	0
bin	-0.4	0
bin	-0.36666666666667	0
bin	-0.33333333333333	0
bin	-0.3	0
bin	-0.26666666666667	0
bin	-0.23333333333333	0
bin	-0.2	0
bin	-0.16666666666667	0
bin	-0.13333333333333	0
bin	-0.1	0
bin	-0.066666666666667	0
bin	-0.033333333333333	0
bin	0	0
bin	0.033333333333333	0
bin	0.066666666666667	0
bin	0.1	0
bin	0.13333333333333	0
bin	0.16666666666667	0
bin	0.2	0
bin	0.23333333333333	0
bin	0.26666666666667	0
bin	0.3	0
bin	0.33333333333333	0
bin	0.36666666666667	0
bin	0.4	0
bin	0.43333333333333	0
bin	0.46666666666667	0
bin	0.5	0
statistic RandomGeometricGraph.rgnv[52] 	arrivalPerc:histogram
field count 0
field mean nan
field stddev nan
field sum 0
field sqrsum 0
field min nan
field max nan
attr interpolationmode  none
attr source  count(arrival)
attr title  "arrival perc, histogram"
bin	-INF	0
bin	-0.5	0
bin	-0.46666666666667	0
bin	-0.43333333333333	0
bin	-0.4	0
bin	-0.36666666666667	0
bin	-0.33333333333333	0
bin	-0.3	0
bin	-0.26666666666667	0
bin	-0.23333333333333	0
bin	-0.2	0
bin	-0.16666666666667	0
bin	-0.13333333333333	0
bin	-0.1	0
bin	-0.066666666666667	0
bin	-0.033333333333333	0
bin	0	0
bin	0.033333333333333	0
bin	0.066666666666667	0
bin	0.1	0
bin	0.13333333333333	0
bin	0.16666666666667	0
bin	0.2	0
bin	0.23333333333333	0
bin	0.26666666666667	0
bin	0.3	0
bin	0.33333333333333	0
bin	0.36666666666667	0
bin	0.4	0
bin	0.43333333333333	0
bin	0.46666666666667	0
bin	0.5	0
statistic RandomGeometricGraph.rgnv[53] 	arrivalTime:histogram
field count 0
field mean nan
field stddev nan
field sum 0
field sqrsum 0
field min nan
field max nan
attr interpolationmode  none
attr source  arrivalTime
attr title  "arrival time, histogram"
bin	-INF	0
bin	-0.5	0
bin	-0.46666666666667	0
bin	-0.43333333333333	0
bin	-0.4	0
bin	-0.36666666666667	0
bin	-0.33333333333333	0
bin	-0.3	0
bin	-0.26666666666667	0
bin	-0.23333333333333	0
bin	-0.2	0
bin	-0.16666666666667	0
bin	-0.13333333333333	0
bin	-0.1	0
bin	-0.066666666666667	0
bin	-0.033333333333333	0
bin	0	0
bin	0.033333333333333	0
bin	0.066666666666667	0
bin	0.1	0
bin	0.13333333333333	0
bin	0.16666666666667	0
bin	0.2	0
bin	0.23333333333333	0
bin	0.26666666666667	0
bin	0.3	0
bin	0.33333333333333	0
bin	0.36666666666667	0
bin	0.4	0
bin	0.43333333333333	0
bin	0.46666666666667	0
bin	0.5	0
statistic RandomGeometricGraph.rgnv[53] 	arrivalPerc:histogram
field count 0
field mean nan
field stddev nan
field sum 0
field sqrsum 0
field min nan
field max nan
attr interpolationmode  none
attr source  count(arrival)
attr title  "arrival perc, histogram"
bin	-INF	0
bin	-0.5	0
bin	-0.46666666666667	0
bin	-0.43333333333333	0
bin	-0.4	0
bin	-0.36666666666667	0
bin	-0.33333333333333	0
bin	-0.3	0
bin	-0.26666666666667	0
bin	-0.23333333333333	0
bin	-0.2	0
bin	-0.16666666666667	0
bin	-0.13333333333333	0
bin	-0.1	0
bin	-0.066666666666667	0
bin	-0.033333333333333	0
bin	0	0
bin	0.033333333333333	0
bin	0.066666666666667	0
bin	0.1	0
bin	0.13333333333333	0
bin	0.16666666666667	0
bin	0.2	0
bin	0.23333333333333	0
bin	0.26666666666667	0
bin	0.3	0
bin	0.33333333333333	0
bin	0.36666666666667	0
bin	0.4	0
bin	0.43333333333333	0
bin	0.46666666666667	0
bin	0.5	0
statistic RandomGeometricGraph.rgnv[54] 	arrivalTime:histogram
field count 1
field mean 206.746
field stddev nan
field sum 206.746
field sqrsum 42743.908516
field min 206.746
field max 206.746
attr interpolationmode  none
attr source  arrivalTime
attr title  "arrival time, histogram"
bin	-INF	0
bin	206.246	0
bin	206.27933333333	0
bin	206.31266666667	0
bin	206.346	0
bin	206.37933333333	0
bin	206.41266666667	0
bin	206.446	0
bin	206.47933333333	0
bin	206.51266666667	0
bin	206.546	0
bin	206.57933333333	0
bin	206.61266666667	0
bin	206.646	0
bin	206.67933333333	0
bin	206.71266666667	0
bin	206.746	1
bin	206.77933333333	0
bin	206.81266666667	0
bin	206.846	0
bin	206.87933333333	0
bin	206.91266666667	0
bin	206.946	0
bin	206.97933333333	0
bin	207.01266666667	0
bin	207.046	0
bin	207.07933333333	0
bin	207.11266666667	0
bin	207.146	0
bin	207.17933333333	0
bin	207.21266666667	0
bin	207.246	0
statistic RandomGeometricGraph.rgnv[54] 	arrivalPerc:histogram
field count 1
field mean 1
field stddev nan
field sum 1
field sqrsum 1
field min 1
field max 1
attr interpolationmode  none
attr source  count(arrival)
attr title  "arrival perc, histogram"
bin	-INF	0
bin	0	0
bin	1	1
bin	2	0
statistic RandomGeometricGraph.rgnv[55] 	arrivalTime:histogram
field count 1
field mean 194.505
field stddev nan
field sum 194.505
field sqrsum 37832.195025
field min 194.505
field max 194.505
attr interpolationmode  none
attr source  arrivalTime
attr title  "arrival time, histogram"
bin	-INF	0
bin	194.005	0
bin	194.03833333333	0
bin	194.07166666667	0
bin	194.105	0
bin	194.13833333333	0
bin	194.17166666667	0
bin	194.205	0
bin	194.23833333333	0
bin	194.27166666667	0
bin	194.305	0
bin	194.33833333333	0
bin	194.37166666667	0
bin	194.405	0
bin	194.43833333333	0
bin	194.47166666667	0
bin	194.505	1
bin	194.53833333333	0
bin	194.57166666667	0
bin	194.605	0
bin	194.63833333333	0
bin	194.67166666667	0
bin	194.705	0
bin	194.73833333333	0
bin	194.77166666667	0
bin	194.805	0
bin	194.83833333333	0
bin	194.87166666667	0
bin	194.905	0
bin	194.93833333333	0
bin	194.97166666667	0
bin	195.005	0
statistic RandomGeometricGraph.rgnv[55] 	arrivalPerc:histogram
field count 1
field mean 1
field stddev nan
field sum 1
field sqrsum 1
field min 1
field max 1
attr interpolationmode  none
attr source  count(arrival)
attr title  "arrival perc, histogram"
bin	-INF	0
bin	0	0
bin	1	1
bin	2	0
statistic RandomGeometricGraph.rgnv[56] 	arrivalTime:histogram
field count 1
field mean 351.297
field stddev nan
field sum 351.297
field sqrsum 123409.582209
field min 351.297
field max 351.297
attr interpolationmode  none
attr source  arrivalTime
attr title  "arrival time, histogram"
bin	-INF	0
bin	350.797	0
bin	350.83033333333	0
bin	350.86366666667	0
bin	350.897	0
bin	350.93033333333	0
bin	350.96366666667	0
bin	350.997	0
bin	351.03033333333	0
bin	351.06366666667	0
bin	351.097	0
bin	351.13033333333	0
bin	351.16366666667	0
bin	351.197	0
bin	351.23033333333	0
bin	351.26366666667	0
bin	351.297	1
bin	351.33033333333	0
bin	351.36366666667	0
bin	351.397	0
bin	351.43033333333	0
bin	351.46366666667	0
bin	351.497	0
bin	351.53033333333	0
bin	351.56366666667	0
bin	351.597	0
bin	351.63033333333	0
bin	351.66366666667	0
bin	351.697	0
bin	351.73033333333	0
bin	351.76366666667	0
bin	351.797	0
statistic RandomGeometricGraph.rgnv[56] 	arrivalPerc:histogram
field count 1
field mean 1
field stddev nan
field sum 1
field sqrsum 1
field min 1
field max 1
attr interpolationmode  none
attr source  count(arrival)
attr title  "arrival perc, histogram"
bin	-INF	0
bin	0	0
bin	1	1
bin	2	0
statistic RandomGeometricGraph.rgnv[57] 	arrivalTime:histogram
field count 1
field mean 363.528
field stddev nan
field sum 363.528
field sqrsum 132152.606784
field min 363.528
field max 363.528
attr interpolationmode  none
attr source  arrivalTime
attr title  "arrival time, histogram"
bin	-INF	0
bin	363.028	0
bin	363.06133333333	0
bin	363.09466666667	0
bin	363.128	0
bin	363.16133333333	0
bin	363.19466666667	0
bin	363.228	0
bin	363.26133333333	0
bin	363.29466666667	0
bin	363.328	0
bin	363.36133333333	0
bin	363.39466666667	0
bin	363.428	0
bin	363.46133333333	0
bin	363.49466666667	0
bin	363.528	1
bin	363.56133333333	0
bin	363.59466666667	0
bin	363.628	0
bin	363.66133333333	0
bin	363.69466666667	0
bin	363.728	0
bin	363.76133333333	0
bin	363.79466666667	0
bin	363.828	0
bin	363.86133333333	0
bin	363.89466666667	0
bin	363.928	0
bin	363.96133333333	0
bin	363.99466666667	0
bin	364.028	0
statistic RandomGeometricGraph.rgnv[57] 	arrivalPerc:histogram
field count 1
field mean 1
field stddev nan
field sum 1
field sqrsum 1
field min 1
field max 1
attr interpolationmode  none
attr source  count(arrival)
attr title  "arrival perc, histogram"
bin	-INF	0
bin	0	0
bin	1	1
bin	2	0
statistic RandomGeometricGraph.rgnv[58] 	arrivalTime:histogram
field count 1
field mean 309.594
field stddev nan
field sum 309.594
field sqrsum 95848.444836
field min 309.594
field max 309.594
attr interpolationmode  none
attr source  arrivalTime
attr title  "arrival time, histogram"
bin	-INF	0
bin	309.094	0
bin	309.12733333333	0
bin	309.16066666667	0
bin	309.194	0
bin	309.22733333333	0
bin	309.26066666667	0
bin	309.294	0
bin	309.32733333333	0
bin	309.36066666667	0
bin	309.394	0
bin	309.42733333333	0
bin	309.46066666667	0
bin	309.494	0
bin	309.52733333333	0
bin	309.56066666667	0
bin	309.594	1
bin	309.62733333333	0
bin	309.66066666667	0
bin	309.694	0
bin	309.72733333333	0
bin	309.76066666667	0
bin	309.794	0
bin	309.82733333333	0
bin	309.86066666667	0
bin	309.894	0
bin	309.92733333333	0
bin	309.96066666667	0
bin	309.994	0
bin	310.02733333333	0
bin	310.06066666667	0
bin	310.094	0
statistic RandomGeometricGraph.rgnv[58] 	arrivalPerc:histogram
field count 1
field mean 1
field stddev nan
field sum 1
field sqrsum 1
field min 1
field max 1
attr interpolationmode  none
attr source  count(arrival)
attr title  "arrival perc, histogram"
bin	-INF	0
bin	0	0
bin	1	1
bin	2	0
statistic RandomGeometricGraph.rgnv[59] 	arrivalTime:histogram
field count 1
field mean 140.581
field stddev nan
field sum 140.581
field sqrsum 19763.017561
field min 140.581
field max 140.581
attr interpolationmode  none
attr source  arrivalTime
attr title  "arrival time, histogram"
bin	-INF	0
bin	140.081	0
bin	140.11433333333	0
bin	140.14766666667	0
bin	140.181	0
bin	140.21433333333	0
bin	140.24766666667	0
bin	140.281	0
bin	140.31433333333	0
bin	140.34766666667	0
bin	140.381	0
bin	140.41433333333	0
bin	140.44766666667	0
bin	140.481	0
bin	140.51433333333	0
bin	140.54766666667	0
bin	140.581	1
bin	140.61433333333	0
bin	140.64766666667	0
bin	140.681	0
bin	140.71433333333	0
bin	140.74766666667	0
bin	140.781	0
bin	140.81433333333	0
bin	140.84766666667	0
bin	140.881	0
bin	140.91433333333	0
bin	140.94766666667	0
bin	140.981	0
bin	141.01433333333	0
bin	141.04766666667	0
bin	141.081	0
statistic RandomGeometricGraph.rgnv[59] 	arrivalPerc:histogram
field count 1
field mean 1
field stddev nan
field sum 1
field sqrsum 1
field min 1
field max 1
attr interpolationmode  none
attr source  count(arrival)
attr title  "arrival perc, histogram"
bin	-INF	0
bin	0	0
bin	1	1
bin	2	0
statistic RandomGeometricGraph.rgnv[60] 	arrivalTime:histogram
field count 1
field mean 62.165
field stddev nan
field sum 62.165
field sqrsum 3864.487225
field min 62.165
field max 62.165
attr interpolationmode  none
attr source  arrivalTime
attr title  "arrival time, histogram"
bin	-INF	0
bin	61.665	0
bin	61.698333333333	0
bin	61.731666666667	0
bin	61.765	0
bin	61.798333333333	0
bin	61.831666666667	0
bin	61.865	0
bin	61.898333333333	0
bin	61.931666666667	0
bin	61.965	0
bin	61.998333333333	0
bin	62.031666666667	0
bin	62.065	0
bin	62.098333333333	0
bin	62.131666666667	0
bin	62.165	1
bin	62.198333333333	0
bin	62.231666666667	0
bin	62.265	0
bin	62.298333333333	0
bin	62.331666666667	0
bin	62.365	0
bin	62.398333333333	0
bin	62.431666666667	0
bin	62.465	0
bin	62.498333333333	0
bin	62.531666666667	0
bin	62.565	0
bin	62.598333333333	0
bin	62.631666666667	0
bin	62.665	0
statistic RandomGeometricGraph.rgnv[60] 	arrivalPerc:histogram
field count 1
field mean 1
field stddev nan
field sum 1
field sqrsum 1
field min 1
field max 1
attr interpolationmode  none
attr source  count(arrival)
attr title  "arrival perc, histogram"
bin	-INF	0
bin	0	0
bin	1	1
bin	2	0
statistic RandomGeometricGraph.rgnv[61] 	arrivalTime:histogram
field count 1
field mean 182.264
field stddev nan
field sum 182.264
field sqrsum 33220.165696
field min 182.264
field max 182.264
attr interpolationmode  none
attr source  arrivalTime
attr title  "arrival time, histogram"
bin	-INF	0
bin	181.764	0
bin	181.79733333333	0
bin	181.83066666667	0
bin	181.864	0
bin	181.89733333333	0
bin	181.93066666667	0
bin	181.964	0
bin	181.99733333333	0
bin	182.03066666667	0
bin	182.064	0
bin	182.09733333333	0
bin	182.13066666667	0
bin	182.164	0
bin	182.19733333333	0
bin	182.23066666667	0
bin	182.264	1
bin	182.29733333333	0
bin	182.33066666667	0
bin	182.364	0
bin	182.39733333333	0
bin	182.43066666667	0
bin	182.464	0
bin	182.49733333333	0
bin	182.53066666667	0
bin	182.564	0
bin	182.59733333333	0
bin	182.63066666667	0
bin	182.664	0
bin	182.69733333333	0
bin	182.73066666667	0
bin	182.764	0
statistic RandomGeometricGraph.rgnv[61] 	arrivalPerc:histogram
field count 1
field mean 1
field stddev nan
field sum 1
field sqrsum 1
field min 1
field max 1
attr interpolationmode  none
attr source  count(arrival)
attr title  "arrival perc, histogram"
bin	-INF	0
bin	0	0
bin	1	1
bin	2	0
statistic RandomGeometricGraph.rgnv[62] 	arrivalTime:histogram
field count 1
field mean 321.825
field stddev nan
field sum 321.825
field sqrsum 103571.330625
field min 321.825
field max 321.825
attr interpolationmode  none
attr source  arrivalTime
attr title  "arrival time, histogram"
bin	-INF	0
bin	321.325	0
bin	321.35833333333	0
bin	321.39166666667	0
bin	321.425	0
bin	321.45833333333	0
bin	321.49166666667	0
bin	321.525	0
bin	321.55833333333	0
bin	321.59166666667	0
bin	321.625	0
bin	321.65833333333	0
bin	321.69166666667	0
bin	321.725	0
bin	321.75833333333	0
bin	321.79166666667	0
bin	321.825	1
bin	321.85833333333	0
bin	321.89166666667	0
bin	321.925	0
bin	321.95833333333	0
bin	321.99166666667	0
bin	322.025	0
bin	322.05833333333	0
bin	322.09166666667	0
bin	322.125	0
bin	322.15833333333	0
bin	322.19166666667	0
bin	322.225	0
bin	322.25833333333	0
bin	322.29166666667	0
bin	322.325	0
statistic RandomGeometricGraph.rgnv[62] 	arrivalPerc:histogram
field count 1
field mean 1
field stddev nan
field sum 1
field sqrsum 1
field min 1
field max 1
attr interpolationmode  none
attr source  count(arrival)
attr title  "arrival perc, histogram"
bin	-INF	0
bin	0	0
bin	1	1
bin	2	0
statistic RandomGeometricGraph.rgnv[63] 	arrivalTime:histogram
field count 1
field mean 13.231
field stddev nan
field sum 13.231
field sqrsum 175.059361
field min 13.231
field max 13.231
attr interpolationmode  none
attr source  arrivalTime
attr title  "arrival time, histogram"
bin	-INF	0
bin	12.731	0
bin	12.764333333333	0
bin	12.797666666667	0
bin	12.831	0
bin	12.864333333333	0
bin	12.897666666667	0
bin	12.931	0
bin	12.964333333333	0
bin	12.997666666667	0
bin	13.031	0
bin	13.064333333333	0
bin	13.097666666667	0
bin	13.131	0
bin	13.164333333333	0
bin	13.197666666667	0
bin	13.231	1
bin	13.264333333333	0
bin	13.297666666667	0
bin	13.331	0
bin	13.364333333333	0
bin	13.397666666667	0
bin	13.431	0
bin	13.464333333333	0
bin	13.497666666667	0
bin	13.531	0
bin	13.564333333333	0
bin	13.597666666667	0
bin	13.631	0
bin	13.664333333333	0
bin	13.697666666667	0
bin	13.731	0
statistic RandomGeometricGraph.rgnv[63] 	arrivalPerc:histogram
field count 1
field mean 1
field stddev nan
field sum 1
field sqrsum 1
field min 1
field max 1
attr interpolationmode  none
attr source  count(arrival)
attr title  "arrival perc, histogram"
[...]
attr title  "arrival perc, histogram"
bin	-INF	0
bin	0	0
bin	1	1
bin	2	0
statistic RandomGeometricGraph.rgnv[184] 	arrivalTime:histogram
field count 0
field mean nan
field stddev nan
field sum 0
field sqrsum 0
field min nan
field max nan
attr interpolationmode  none
attr source  arrivalTime
attr title  "arrival time, histogram"
bin	-INF	0
bin	-0.5	0
bin	-0.46666666666667	0
bin	-0.43333333333333	0
bin	-0.4	0
bin	-0.36666666666667	0
bin	-0.33333333333333	0
bin	-0.3	0
bin	-0.26666666666667	0
bin	-0.23333333333333	0
bin	-0.2	0
bin	-0.16666666666667	0
bin	-0.13333333333333	0
bin	-0.1	0
bin	-0.066666666666667	0
bin	-0.033333333333333	0
bin	0	0
bin	0.033333333333333	0
bin	0.066666666666667	0
bin	0.1	0
bin	0.13333333333333	0
bin	0.16666666666667	0
bin	0.2	0
bin	0.23333333333333	0
bin	0.26666666666667	0
bin	0.3	0
bin	0.33333333333333	0
bin	0.36666666666667	0
bin	0.4	0
bin	0.43333333333333	0
bin	0.46666666666667	0
bin	0.5	0
statistic RandomGeometricGraph.rgnv[184] 	arrivalPerc:histogram
field count 0
field mean nan
field stddev nan
field sum 0
field sqrsum 0
field min nan
field max nan
attr interpolationmode  none
attr source  count(arrival)
attr title  "arrival perc, histogram"
bin	-INF	0
bin	-0.5	0
bin	-0.46666666666667	0
bin	-0.43333333333333	0
bin	-0.4	0
bin	-0.36666666666667	0
bin	-0.33333333333333	0
bin	-0.3	0
bin	-0.26666666666667	0
bin	-0.23333333333333	0
bin	-0.2	0
bin	-0.16666666666667	0
bin	-0.13333333333333	0
bin	-0.1	0
bin	-0.066666666666667	0
bin	-0.033333333333333	0
bin	0	0
bin	0.033333333333333	0
bin	0.066666666666667	0
bin	0.1	0
bin	0.13333333333333	0
bin	0.16666666666667	0
bin	0.2	0
bin	0.23333333333333	0
bin	0.26666666666667	0
bin	0.3	0
bin	0.33333333333333	0
bin	0.36666666666667	0
bin	0.4	0
bin	0.43333333333333	0
bin	0.46666666666667	0
bin	0.5	0
statistic RandomGeometricGraph.rgnv[185] 	arrivalTime:histogram
field count 1
field mean 170.043
field stddev nan
field sum 170.043
field sqrsum 28914.621849
field min 170.043
field max 170.043
attr interpolationmode  none
attr source  arrivalTime
attr title  "arrival time, histogram"
bin	-INF	0
bin	169.543	0
bin	169.57633333333	0
bin	169.60966666667	0
bin	169.643	0
bin	169.67633333333	0
bin	169.70966666667	0
bin	169.743	0
bin	169.77633333333	0
bin	169.80966666667	0
bin	169.843	0
bin	169.87633333333	0
bin	169.90966666667	0
bin	169.943	0
bin	169.97633333333	0
bin	170.00966666667	0
bin	170.043	1
bin	170.07633333333	0
bin	170.10966666667	0
bin	170.143	0
bin	170.17633333333	0
bin	170.20966666667	0
bin	170.243	0
bin	170.27633333333	0
bin	170.30966666667	0
bin	170.343	0
bin	170.37633333333	0
bin	170.40966666667	0
bin	170.443	0
bin	170.47633333333	0
bin	170.50966666667	0
bin	170.543	0
statistic RandomGeometricGraph.rgnv[185] 	arrivalPerc:histogram
field count 1
field mean 1
field stddev nan
field sum 1
field sqrsum 1
field min 1
field max 1
attr interpolationmode  none
attr source  count(arrival)
attr title  "arrival perc, histogram"
bin	-INF	0
bin	0	0
bin	1	1
bin	2	0
statistic RandomGeometricGraph.rgnv[186] 	arrivalTime:histogram
field count 1
field mean 243.429
field stddev nan
field sum 243.429
field sqrsum 59257.678041
field min 243.429
field max 243.429
attr interpolationmode  none
attr source  arrivalTime
attr title  "arrival time, histogram"
bin	-INF	0
bin	242.929	0
bin	242.96233333333	0
bin	242.99566666667	0
bin	243.029	0
bin	243.06233333333	0
bin	243.09566666667	0
bin	243.129	0
bin	243.16233333333	0
bin	243.19566666667	0
bin	243.229	0
bin	243.26233333333	0
bin	243.29566666667	0
bin	243.329	0
bin	243.36233333333	0
bin	243.39566666667	0
bin	243.429	1
bin	243.46233333333	0
bin	243.49566666667	0
bin	243.529	0
bin	243.56233333333	0
bin	243.59566666667	0
bin	243.629	0
bin	243.66233333333	0
bin	243.69566666667	0
bin	243.729	0
bin	243.76233333333	0
bin	243.79566666667	0
bin	243.829	0
bin	243.86233333333	0
bin	243.89566666667	0
bin	243.929	0
statistic RandomGeometricGraph.rgnv[186] 	arrivalPerc:histogram
field count 1
field mean 1
field stddev nan
field sum 1
field sqrsum 1
field min 1
field max 1
attr interpolationmode  none
attr source  count(arrival)
attr title  "arrival perc, histogram"
bin	-INF	0
bin	0	0
bin	1	1
bin	2	0
statistic RandomGeometricGraph.rgnv[187] 	arrivalTime:histogram
field count 1
field mean 170.043
field stddev nan
field sum 170.043
field sqrsum 28914.621849
field min 170.043
field max 170.043
attr interpolationmode  none
attr source  arrivalTime
attr title  "arrival time, histogram"
bin	-INF	0
bin	169.543	0
bin	169.57633333333	0
bin	169.60966666667	0
bin	169.643	0
bin	169.67633333333	0
bin	169.70966666667	0
bin	169.743	0
bin	169.77633333333	0
bin	169.80966666667	0
bin	169.843	0
bin	169.87633333333	0
bin	169.90966666667	0
bin	169.943	0
bin	169.97633333333	0
bin	170.00966666667	0
bin	170.043	1
bin	170.07633333333	0
bin	170.10966666667	0
bin	170.143	0
bin	170.17633333333	0
bin	170.20966666667	0
bin	170.243	0
bin	170.27633333333	0
bin	170.30966666667	0
bin	170.343	0
bin	170.37633333333	0
bin	170.40966666667	0
bin	170.443	0
bin	170.47633333333	0
bin	170.50966666667	0
bin	170.543	0
statistic RandomGeometricGraph.rgnv[187] 	arrivalPerc:histogram
field count 1
field mean 1
field stddev nan
field sum 1
field sqrsum 1
field min 1
field max 1
attr interpolationmode  none
attr source  count(arrival)
attr title  "arrival perc, histogram"
bin	-INF	0
bin	0	0
bin	1	1
bin	2	0
statistic RandomGeometricGraph.rgnv[188] 	arrivalTime:histogram
field count 1
field mean 275.112
field stddev nan
field sum 275.112
field sqrsum 75686.612544
field min 275.112
field max 275.112
attr interpolationmode  none
attr source  arrivalTime
attr title  "arrival time, histogram"
bin	-INF	0
bin	274.612	0
bin	274.64533333333	0
bin	274.67866666667	0
bin	274.712	0
bin	274.74533333333	0
bin	274.77866666667	0
bin	274.812	0
bin	274.84533333333	0
bin	274.87866666667	0
bin	274.912	0
bin	274.94533333333	0
bin	274.97866666667	0
bin	275.012	0
bin	275.04533333333	0
bin	275.07866666667	0
bin	275.112	1
bin	275.14533333333	0
bin	275.17866666667	0
bin	275.212	0
bin	275.24533333333	0
bin	275.27866666667	0
bin	275.312	0
bin	275.34533333333	0
bin	275.37866666667	0
bin	275.412	0
bin	275.44533333333	0
bin	275.47866666667	0
bin	275.512	0
bin	275.54533333333	0
bin	275.57866666667	0
bin	275.612	0
statistic RandomGeometricGraph.rgnv[188] 	arrivalPerc:histogram
field count 1
field mean 1
field stddev nan
field sum 1
field sqrsum 1
field min 1
field max 1
attr interpolationmode  none
attr source  count(arrival)
attr title  "arrival perc, histogram"
bin	-INF	0
bin	0	0
bin	1	1
bin	2	0
statistic RandomGeometricGraph.rgnv[189] 	arrivalTime:histogram
field count 1
field mean 170.033
field stddev nan
field sum 170.033
field sqrsum 28911.221089
field min 170.033
field max 170.033
attr interpolationmode  none
attr source  arrivalTime
attr title  "arrival time, histogram"
bin	-INF	0
bin	169.533	0
bin	169.56633333333	0
bin	169.59966666667	0
bin	169.633	0
bin	169.66633333333	0
bin	169.69966666667	0
bin	169.733	0
bin	169.76633333333	0
bin	169.79966666667	0
bin	169.833	0
bin	169.86633333333	0
bin	169.89966666667	0
bin	169.933	0
bin	169.96633333333	0
bin	169.99966666667	0
bin	170.033	1
bin	170.06633333333	0
bin	170.09966666667	0
bin	170.133	0
bin	170.16633333333	0
bin	170.19966666667	0
bin	170.233	0
bin	170.26633333333	0
bin	170.29966666667	0
bin	170.333	0
bin	170.36633333333	0
bin	170.39966666667	0
bin	170.433	0
bin	170.46633333333	0
bin	170.49966666667	0
bin	170.533	0
statistic RandomGeometricGraph.rgnv[189] 	arrivalPerc:histogram
field count 1
field mean 1
field stddev nan
field sum 1
field sqrsum 1
field min 1
field max 1
attr interpolationmode  none
attr source  count(arrival)
attr title  "arrival perc, histogram"
bin	-INF	0
bin	0	0
bin	1	1
bin	2	0
statistic RandomGeometricGraph.rgnv[190] 	arrivalTime:histogram
field count 1
field mean 199.505
field stddev nan
field sum 199.505
field sqrsum 39802.245025
field min 199.505
field max 199.505
attr interpolationmode  none
attr source  arrivalTime
attr title  "arrival time, histogram"
bin	-INF	0
bin	199.005	0
bin	199.03833333333	0
bin	199.07166666667	0
bin	199.105	0
bin	199.13833333333	0
bin	199.17166666667	0
bin	199.205	0
bin	199.23833333333	0
bin	199.27166666667	0
bin	199.305	0
bin	199.33833333333	0
bin	199.37166666667	0
bin	199.405	0
bin	199.43833333333	0
bin	199.47166666667	0
bin	199.505	1
bin	199.53833333333	0
bin	199.57166666667	0
bin	199.605	0
bin	199.63833333333	0
bin	199.67166666667	0
bin	199.705	0
bin	199.73833333333	0
bin	199.77166666667	0
bin	199.805	0
bin	199.83833333333	0
bin	199.87166666667	0
bin	199.905	0
bin	199.93833333333	0
bin	199.97166666667	0
bin	200.005	0
statistic RandomGeometricGraph.rgnv[190] 	arrivalPerc:histogram
field count 1
field mean 1
field stddev nan
field sum 1
field sqrsum 1
field min 1
field max 1
attr interpolationmode  none
attr source  count(arrival)
attr title  "arrival perc, histogram"
bin	-INF	0
bin	0	0
bin	1	1
bin	2	0
statistic RandomGeometricGraph.rgnv[191] 	arrivalTime:histogram
field count 1
field mean 121.109
field stddev nan
field sum 121.109
field sqrsum 14667.389881
field min 121.109
field max 121.109
attr interpolationmode  none
attr source  arrivalTime
attr title  "arrival time, histogram"
bin	-INF	0
bin	120.609	0
bin	120.64233333333	0
bin	120.67566666667	0
bin	120.709	0
bin	120.74233333333	0
bin	120.77566666667	0
bin	120.809	0
bin	120.84233333333	0
bin	120.87566666667	0
bin	120.909	0
bin	120.94233333333	0
bin	120.97566666667	0
bin	121.009	0
bin	121.04233333333	0
bin	121.07566666667	0
bin	121.109	1
bin	121.14233333333	0
bin	121.17566666667	0
bin	121.209	0
bin	121.24233333333	0
bin	121.27566666667	0
bin	121.309	0
bin	121.34233333333	0
bin	121.37566666667	0
bin	121.409	0
bin	121.44233333333	0
bin	121.47566666667	0
bin	121.509	0
bin	121.54233333333	0
bin	121.57566666667	0
bin	121.609	0
statistic RandomGeometricGraph.rgnv[191] 	arrivalPerc:histogram
field count 1
field mean 1
field stddev nan
field sum 1
field sqrsum 1
field min 1
field max 1
attr interpolationmode  none
attr source  count(arrival)
attr title  "arrival perc, histogram"
bin	-INF	0
bin	0	0
bin	1	1
bin	2	0
statistic RandomGeometricGraph.rgnv[192] 	arrivalTime:histogram
field count 1
field mean 91.637
field stddev nan
field sum 91.637
field sqrsum 8397.339769
field min 91.637
field max 91.637
attr interpolationmode  none
attr source  arrivalTime
attr title  "arrival time, histogram"
bin	-INF	0
bin	91.137	0
bin	91.170333333333	0
bin	91.203666666667	0
bin	91.237	0
bin	91.270333333333	0
bin	91.303666666667	0
bin	91.337	0
bin	91.370333333333	0
bin	91.403666666667	0
bin	91.437	0
bin	91.470333333333	0
bin	91.503666666667	0
bin	91.537	0
bin	91.570333333333	0
bin	91.603666666667	0
bin	91.637	1
bin	91.670333333333	0
bin	91.703666666667	0
bin	91.737	0
bin	91.770333333333	0
bin	91.803666666667	0
bin	91.837	0
bin	91.870333333333	0
bin	91.903666666667	0
bin	91.937	0
bin	91.970333333333	0
bin	92.003666666667	0
bin	92.037	0
bin	92.070333333333	0
bin	92.103666666667	0
bin	92.137	0
statistic RandomGeometricGraph.rgnv[192] 	arrivalPerc:histogram
field count 1
field mean 1
field stddev nan
field sum 1
field sqrsum 1
field min 1
field max 1
attr interpolationmode  none
attr source  count(arrival)
attr title  "arrival perc, histogram"
bin	-INF	0
bin	0	0
bin	1	1
bin	2	0
statistic RandomGeometricGraph.rgnv[193] 	arrivalTime:histogram
field count 1
field mean 187.274
field stddev nan
field sum 187.274
field sqrsum 35071.551076
field min 187.274
field max 187.274
attr interpolationmode  none
attr source  arrivalTime
attr title  "arrival time, histogram"
bin	-INF	0
bin	186.774	0
bin	186.80733333333	0
bin	186.84066666667	0
bin	186.874	0
bin	186.90733333333	0
bin	186.94066666667	0
bin	186.974	0
bin	187.00733333333	0
bin	187.04066666667	0
bin	187.074	0
bin	187.10733333333	0
bin	187.14066666667	0
bin	187.174	0
bin	187.20733333333	0
bin	187.24066666667	0
bin	187.274	1
bin	187.30733333333	0
bin	187.34066666667	0
bin	187.374	0
bin	187.40733333333	0
bin	187.44066666667	0
bin	187.474	0
bin	187.50733333333	0
bin	187.54066666667	0
bin	187.574	0
bin	187.60733333333	0
bin	187.64066666667	0
bin	187.674	0
bin	187.70733333333	0
bin	187.74066666667	0
bin	187.774	0
statistic RandomGeometricGraph.rgnv[193] 	arrivalPerc:histogram
field count 1
field mean 1
field stddev nan
field sum 1
field sqrsum 1
field min 1
field max 1
attr interpolationmode  none
attr source  count(arrival)
attr title  "arrival perc, histogram"
bin	-INF	0
bin	0	0
bin	1	1
bin	2	0
statistic RandomGeometricGraph.rgnv[194] 	arrivalTime:histogram
field count 1
field mean 194.515
field stddev nan
field sum 194.515
field sqrsum 37836.085225
field min 194.515
field max 194.515
attr interpolationmode  none
attr source  arrivalTime
attr title  "arrival time, histogram"
bin	-INF	0
bin	194.015	0
bin	194.04833333333	0
bin	194.08166666667	0
bin	194.115	0
bin	194.14833333333	0
bin	194.18166666667	0
bin	194.215	0
bin	194.24833333333	0
bin	194.28166666667	0
bin	194.315	0
bin	194.34833333333	0
bin	194.38166666667	0
bin	194.415	0
bin	194.44833333333	0
bin	194.48166666667	0
bin	194.515	1
bin	194.54833333333	0
bin	194.58166666667	0
bin	194.615	0
bin	194.64833333333	0
bin	194.68166666667	0
bin	194.715	0
bin	194.74833333333	0
bin	194.78166666667	0
bin	194.815	0
bin	194.84833333333	0
bin	194.88166666667	0
bin	194.915	0
bin	194.94833333333	0
bin	194.98166666667	0
bin	195.015	0
statistic RandomGeometricGraph.rgnv[194] 	arrivalPerc:histogram
field count 1
field mean 1
field stddev nan
field sum 1
field sqrsum 1
field min 1
field max 1
attr interpolationmode  none
attr source  count(arrival)
attr title  "arrival perc, histogram"
bin	-INF	0
bin	0	0
bin	1	1
bin	2	0
statistic RandomGeometricGraph.rgnv[195] 	arrivalTime:histogram
field count 1
field mean 223.967
field stddev nan
field sum 223.967
field sqrsum 50161.217089
field min 223.967
field max 223.967
attr interpolationmode  none
attr source  arrivalTime
attr title  "arrival time, histogram"
bin	-INF	0
bin	223.467	0
bin	223.50033333333	0
bin	223.53366666667	0
bin	223.567	0
bin	223.60033333333	0
bin	223.63366666667	0
bin	223.667	0
bin	223.70033333333	0
bin	223.73366666667	0
bin	223.767	0
bin	223.80033333333	0
bin	223.83366666667	0
bin	223.867	0
bin	223.90033333333	0
bin	223.93366666667	0
bin	223.967	1
bin	224.00033333333	0
bin	224.03366666667	0
bin	224.067	0
bin	224.10033333333	0
bin	224.13366666667	0
bin	224.167	0
bin	224.20033333333	0
bin	224.23366666667	0
bin	224.267	0
bin	224.30033333333	0
bin	224.33366666667	0
bin	224.367	0
bin	224.40033333333	0
bin	224.43366666667	0
bin	224.467	0
statistic RandomGeometricGraph.rgnv[195] 	arrivalPerc:histogram
field count 1
field mean 1
field stddev nan
field sum 1
field sqrsum 1
field min 1
field max 1
attr interpolationmode  none
attr source  count(arrival)
attr title  "arrival perc, histogram"
bin	-INF	0
bin	0	0
bin	1	1
bin	2	0
statistic RandomGeometricGraph.rgnv[196] 	arrivalTime:histogram
field count 1
field mean 30.472
field stddev nan
field sum 30.472
field sqrsum 928.542784
field min 30.472
field max 30.472
attr interpolationmode  none
attr source  arrivalTime
attr title  "arrival time, histogram"
bin	-INF	0
bin	29.972	0
bin	30.005333333333	0
bin	30.038666666667	0
bin	30.072	0
bin	30.105333333333	0
bin	30.138666666667	0
bin	30.172	0
bin	30.205333333333	0
bin	30.238666666667	0
bin	30.272	0
bin	30.305333333333	0
bin	30.338666666667	0
bin	30.372	0
bin	30.405333333333	0
bin	30.438666666667	0
bin	30.472	1
bin	30.505333333333	0
bin	30.538666666667	0
bin	30.572	0
bin	30.605333333333	0
bin	30.638666666667	0
bin	30.672	0
bin	30.705333333333	0
bin	30.738666666667	0
bin	30.772	0
bin	30.805333333333	0
bin	30.838666666667	0
bin	30.872	0
bin	30.905333333333	0
bin	30.938666666667	0
bin	30.972	0
statistic RandomGeometricGraph.rgnv[196] 	arrivalPerc:histogram
field count 1
field mean 1
field stddev nan
field sum 1
field sqrsum 1
field min 1
field max 1
attr interpolationmode  none
attr source  count(arrival)
attr title  "arrival perc, histogram"
bin	-INF	0
bin	0	0
bin	1	1
bin	2	0
statistic RandomGeometricGraph.rgnv[197] 	arrivalTime:histogram
field count 1
field mean 238.419
field stddev nan
field sum 238.419
field sqrsum 56843.619561
field min 238.419
field max 238.419
attr interpolationmode  none
attr source  arrivalTime
attr title  "arrival time, histogram"
bin	-INF	0
bin	237.919	0
bin	237.95233333333	0
bin	237.98566666667	0
bin	238.019	0
bin	238.05233333333	0
bin	238.08566666667	0
bin	238.119	0
bin	238.15233333333	0
bin	238.18566666667	0
bin	238.219	0
bin	238.25233333333	0
bin	238.28566666667	0
bin	238.319	0
bin	238.35233333333	0
bin	238.38566666667	0
bin	238.419	1
bin	238.45233333333	0
bin	238.48566666667	0
bin	238.519	0
bin	238.55233333333	0
bin	238.58566666667	0
bin	238.619	0
bin	238.65233333333	0
bin	238.68566666667	0
bin	238.719	0
bin	238.75233333333	0
bin	238.78566666667	0
bin	238.819	0
bin	238.85233333333	0
bin	238.88566666667	0
bin	238.919	0
statistic RandomGeometricGraph.rgnv[197] 	arrivalPerc:histogram
field count 1
field mean 1
field stddev nan
field sum 1
field sqrsum 1
field min 1
field max 1
attr interpolationmode  none
attr source  count(arrival)
attr title  "arrival perc, histogram"
bin	-INF	0
bin	0	0
bin	1	1
bin	2	0
statistic RandomGeometricGraph.rgnv[198] 	arrivalTime:histogram
field count 0
field mean nan
field stddev nan
field sum 0
field sqrsum 0
field min nan
field max nan
attr interpolationmode  none
attr source  arrivalTime
attr title  "arrival time, histogram"
bin	-INF	0
bin	-0.5	0
bin	-0.46666666666667	0
bin	-0.43333333333333	0
bin	-0.4	0
bin	-0.36666666666667	0
bin	-0.33333333333333	0
bin	-0.3	0
bin	-0.26666666666667	0
bin	-0.23333333333333	0
bin	-0.2	0
bin	-0.16666666666667	0
bin	-0.13333333333333	0
bin	-0.1	0
bin	-0.066666666666667	0
bin	-0.033333333333333	0
bin	0	0
bin	0.033333333333333	0
bin	0.066666666666667	0
bin	0.1	0
bin	0.13333333333333	0
bin	0.16666666666667	0
bin	0.2	0
bin	0.23333333333333	0
bin	0.26666666666667	0
bin	0.3	0
bin	0.33333333333333	0
bin	0.36666666666667	0
bin	0.4	0
bin	0.43333333333333	0
bin	0.46666666666667	0
bin	0.5	0
statistic RandomGeometricGraph.rgnv[198] 	arrivalPerc:histogram
field count 0
field mean nan
field stddev nan
field sum 0
field sqrsum 0
field min nan
field max nan
attr interpolationmode  none
attr source  count(arrival)
attr title  "arrival perc, histogram"
bin	-INF	0
bin	-0.5	0
bin	-0.46666666666667	0
bin	-0.43333333333333	0
bin	-0.4	0
bin	-0.36666666666667	0
bin	-0.33333333333333	0
bin	-0.3	0
bin	-0.26666666666667	0
bin	-0.23333333333333	0
bin	-0.2	0
bin	-0.16666666666667	0
bin	-0.13333333333333	0
bin	-0.1	0
bin	-0.066666666666667	0
bin	-0.033333333333333	0
bin	0	0
bin	0.033333333333333	0
bin	0.066666666666667	0
bin	0.1	0
bin	0.13333333333333	0
bin	0.16666666666667	0
bin	0.2	0
bin	0.23333333333333	0
bin	0.26666666666667	0
bin	0.3	0
bin	0.33333333333333	0
bin	0.36666666666667	0
bin	0.4	0
bin	0.43333333333333	0
bin	0.46666666666667	0
bin	0.5	0
statistic RandomGeometricGraph.rgnv[199] 	arrivalTime:histogram
field count 1
field mean 145.571
field stddev nan
field sum 145.571
field sqrsum 21190.916041
field min 145.571
field max 145.571
attr interpolationmode  none
attr source  arrivalTime
attr title  "arrival time, histogram"
bin	-INF	0
bin	145.071	0
bin	145.10433333333	0
bin	145.13766666667	0
bin	145.171	0
bin	145.20433333333	0
bin	145.23766666667	0
bin	145.271	0
bin	145.30433333333	0
bin	145.33766666667	0
bin	145.371	0
bin	145.40433333333	0
bin	145.43766666667	0
bin	145.471	0
bin	145.50433333333	0
bin	145.53766666667	0
bin	145.571	1
bin	145.60433333333	0
bin	145.63766666667	0
bin	145.671	0
bin	145.70433333333	0
bin	145.73766666667	0
bin	145.771	0
bin	145.80433333333	0
bin	145.83766666667	0
bin	145.871	0
bin	145.90433333333	0
bin	145.93766666667	0
bin	145.971	0
bin	146.00433333333	0
bin	146.03766666667	0
bin	146.071	0
statistic RandomGeometricGraph.rgnv[199] 	arrivalPerc:histogram
field count 1
field mean 1
field stddev nan
field sum 1
field sqrsum 1
field min 1
field max 1
attr interpolationmode  none
attr source  count(arrival)
attr title  "arrival perc, histogram"
bin	-INF	0
bin	0	0
bin	1	1
bin	2	0
