version 2
run rgg200-11-20170110-16:23:42-12236
attr configname rgg200
attr datetime 20170110-16:23:42
attr experiment rgg200
attr inifile iniFile/D001/omnetpp_15D001.ini
attr iterationvars ""
attr iterationvars2 $repetition=11
attr measurement ""
attr network blegossipprj.net.randomgeometricgraph.RandomGeometricGraph
attr processid 12236
attr repetition 11
attr replication #11
attr resultdir ../../results/D001/r15D001
attr runnumber 11
attr seedset 11
param RandomGeometricGraph.netSize 200
param RandomGeometricGraph.radius 15
param RandomGeometricGraph.rgnv[*].areaLength 141
param RandomGeometricGraph.rgnv[*].areaWidth 141

statistic RandomGeometricGraph.sc 	arrivalPercentage
field count 185
field mean 1
field stddev 0
field sum 185
field sqrsum 185
field min 1
field max 1
attr type  int
bin	-INF	0
bin	0	0
bin	1	185
bin	2	0
statistic RandomGeometricGraph.sc 	arrivalTime
field count 185
field mean 165.40129189189
field stddev 81.360662644869
field sum 30599.239
field sqrsum 6279152.227895
field min 0
field max 339.066
bin	-INF	0
bin	-82.5115	0
bin	-71.509966666667	0
bin	-60.508433333333	0
bin	-49.5069	0
bin	-38.505366666667	0
bin	-27.503833333333	0
bin	-16.5023	0
bin	-5.5007666666667	1
bin	5.5007666666667	1
bin	16.5023	2
bin	27.503833333333	4
bin	38.505366666667	0
bin	49.5069	7
bin	60.508433333333	9
bin	71.509966666667	9
bin	82.5115	7
bin	93.513033333333	8
bin	104.51456666667	5
bin	115.5161	11
bin	126.51763333333	12
bin	137.51916666667	12
bin	148.5207	6
bin	159.52223333333	11
bin	170.52376666667	5
bin	181.5253	9
bin	192.52683333333	10
bin	203.52836666667	9
bin	214.5299	5
bin	225.53143333333	4
bin	236.53296666667	3
bin	247.5345	35
statistic RandomGeometricGraph.rgnv[0] 	arrivalTime:histogram
field count 1
field mean 218.977
field stddev nan
field sum 218.977
field sqrsum 47950.926529
field min 218.977
field max 218.977
attr interpolationmode  none
attr source  arrivalTime
attr title  "arrival time, histogram"
bin	-INF	0
bin	218.477	0
bin	218.51033333333	0
bin	218.54366666667	0
bin	218.577	0
bin	218.61033333333	0
bin	218.64366666667	0
bin	218.677	0
bin	218.71033333333	0
bin	218.74366666667	0
bin	218.777	0
bin	218.81033333333	0
bin	218.84366666667	0
bin	218.877	0
bin	218.91033333333	0
bin	218.94366666667	0
bin	218.977	1
bin	219.01033333333	0
bin	219.04366666667	0
bin	219.077	0
bin	219.11033333333	0
bin	219.14366666667	0
bin	219.177	0
bin	219.21033333333	0
bin	219.24366666667	0
bin	219.277	0
bin	219.31033333333	0
bin	219.34366666667	0
bin	219.377	0
bin	219.41033333333	0
bin	219.44366666667	0
bin	219.477	0
statistic RandomGeometricGraph.rgnv[0] 	arrivalPerc:histogram
field count 1
field mean 1
field stddev nan
field sum 1
field sqrsum 1
field min 1
field max 1
attr interpolationmode  none
attr source  count(arrival)
attr title  "arrival perc, histogram"
bin	-INF	0
bin	0	0
bin	1	1
bin	2	0
statistic RandomGeometricGraph.rgnv[1] 	arrivalTime:histogram
field count 1
field mean 49.944
field stddev nan
field sum 49.944
field sqrsum 2494.403136
field min 49.944
field max 49.944
attr interpolationmode  none
attr source  arrivalTime
attr title  "arrival time, histogram"
bin	-INF	0
bin	49.444	0
bin	49.477333333333	0
bin	49.510666666667	0
bin	49.544	0
bin	49.577333333333	0
bin	49.610666666667	0
bin	49.644	0
bin	49.677333333333	0
bin	49.710666666667	0
bin	49.744	0
bin	49.777333333333	0
bin	49.810666666667	0
bin	49.844	0
bin	49.877333333333	0
bin	49.910666666667	0
bin	49.944	1
bin	49.977333333333	0
bin	50.010666666667	0
bin	50.044	0
bin	50.077333333333	0
bin	50.110666666667	0
bin	50.144	0
bin	50.177333333333	0
bin	50.210666666667	0
bin	50.244	0
bin	50.277333333333	0
bin	50.310666666667	0
bin	50.344	0
bin	50.377333333333	0
bin	50.410666666667	0
bin	50.444	0
statistic RandomGeometricGraph.rgnv[1] 	arrivalPerc:histogram
field count 1
field mean 1
field stddev nan
field sum 1
field sqrsum 1
field min 1
field max 1
attr interpolationmode  none
attr source  count(arrival)
attr title  "arrival perc, histogram"
bin	-INF	0
bin	0	0
bin	1	1
bin	2	0
statistic RandomGeometricGraph.rgnv[2] 	arrivalTime:histogram
field count 1
field mean 267.901
field stddev nan
field sum 267.901
field sqrsum 71770.945801
field min 267.901
field max 267.901
attr interpolationmode  none
attr source  arrivalTime
attr title  "arrival time, histogram"
bin	-INF	0
bin	267.401	0
bin	267.43433333333	0
bin	267.46766666667	0
bin	267.501	0
bin	267.53433333333	0
bin	267.56766666667	0
bin	267.601	0
bin	267.63433333333	0
bin	267.66766666667	0
bin	267.701	0
bin	267.73433333333	0
bin	267.76766666667	0
bin	267.801	0
bin	267.83433333333	0
bin	267.86766666667	0
bin	267.901	1
bin	267.93433333333	0
bin	267.96766666667	0
bin	268.001	0
bin	268.03433333333	0
bin	268.06766666667	0
bin	268.101	0
bin	268.13433333333	0
bin	268.16766666667	0
bin	268.201	0
bin	268.23433333333	0
bin	268.26766666667	0
bin	268.301	0
bin	268.33433333333	0
bin	268.36766666667	0
bin	268.401	0
statistic RandomGeometricGraph.rgnv[2] 	arrivalPerc:histogram
field count 1
field mean 1
field stddev nan
field sum 1
field sqrsum 1
field min 1
field max 1
attr interpolationmode  none
attr source  count(arrival)
attr title  "arrival perc, histogram"
bin	-INF	0
bin	0	0
bin	1	1
bin	2	0
statistic RandomGeometricGraph.rgnv[3] 	arrivalTime:histogram
field count 1
field mean 74.386
field stddev nan
field sum 74.386
field sqrsum 5533.276996
field min 74.386
field max 74.386
attr interpolationmode  none
attr source  arrivalTime
attr title  "arrival time, histogram"
bin	-INF	0
bin	73.886	0
bin	73.919333333333	0
bin	73.952666666667	0
bin	73.986	0
bin	74.019333333333	0
bin	74.052666666667	0
bin	74.086	0
bin	74.119333333333	0
bin	74.152666666667	0
bin	74.186	0
bin	74.219333333333	0
bin	74.252666666667	0
bin	74.286	0
bin	74.319333333333	0
bin	74.352666666667	0
bin	74.386	1
bin	74.419333333333	0
bin	74.452666666667	0
bin	74.486	0
bin	74.519333333333	0
bin	74.552666666667	0
bin	74.586	0
bin	74.619333333333	0
bin	74.652666666667	0
bin	74.686	0
bin	74.719333333333	0
bin	74.752666666667	0
bin	74.786	0
bin	74.819333333333	0
bin	74.852666666667	0
bin	74.886	0
statistic RandomGeometricGraph.rgnv[3] 	arrivalPerc:histogram
field count 1
field mean 1
field stddev nan
field sum 1
field sqrsum 1
field min 1
field max 1
attr interpolationmode  none
attr source  count(arrival)
attr title  "arrival perc, histogram"
bin	-INF	0
bin	0	0
bin	1	1
bin	2	0
statistic RandomGeometricGraph.rgnv[4] 	arrivalTime:histogram
field count 1
field mean 213.967
field stddev nan
field sum 213.967
field sqrsum 45781.877089
field min 213.967
field max 213.967
attr interpolationmode  none
attr source  arrivalTime
attr title  "arrival time, histogram"
bin	-INF	0
bin	213.467	0
bin	213.50033333333	0
bin	213.53366666667	0
bin	213.567	0
bin	213.60033333333	0
bin	213.63366666667	0
bin	213.667	0
bin	213.70033333333	0
bin	213.73366666667	0
bin	213.767	0
bin	213.80033333333	0
bin	213.83366666667	0
bin	213.867	0
bin	213.90033333333	0
bin	213.93366666667	0
bin	213.967	1
bin	214.00033333333	0
bin	214.03366666667	0
bin	214.067	0
bin	214.10033333333	0
bin	214.13366666667	0
bin	214.167	0
bin	214.20033333333	0
bin	214.23366666667	0
bin	214.267	0
bin	214.30033333333	0
bin	214.33366666667	0
bin	214.367	0
bin	214.40033333333	0
bin	214.43366666667	0
bin	214.467	0
statistic RandomGeometricGraph.rgnv[4] 	arrivalPerc:histogram
field count 1
field mean 1
field stddev nan
field sum 1
field sqrsum 1
field min 1
field max 1
attr interpolationmode  none
attr source  count(arrival)
attr title  "arrival perc, histogram"
bin	-INF	0
bin	0	0
bin	1	1
bin	2	0
statistic RandomGeometricGraph.rgnv[5] 	arrivalTime:histogram
field count 1
field mean 182.274
field stddev nan
field sum 182.274
field sqrsum 33223.811076
field min 182.274
field max 182.274
attr interpolationmode  none
attr source  arrivalTime
attr title  "arrival time, histogram"
bin	-INF	0
bin	181.774	0
bin	181.80733333333	0
bin	181.84066666667	0
bin	181.874	0
bin	181.90733333333	0
bin	181.94066666667	0
bin	181.974	0
bin	182.00733333333	0
bin	182.04066666667	0
bin	182.074	0
bin	182.10733333333	0
bin	182.14066666667	0
bin	182.174	0
bin	182.20733333333	0
bin	182.24066666667	0
bin	182.274	1
bin	182.30733333333	0
bin	182.34066666667	0
bin	182.374	0
bin	182.40733333333	0
bin	182.44066666667	0
bin	182.474	0
bin	182.50733333333	0
bin	182.54066666667	0
bin	182.574	0
bin	182.60733333333	0
bin	182.64066666667	0
bin	182.674	0
bin	182.70733333333	0
bin	182.74066666667	0
bin	182.774	0
statistic RandomGeometricGraph.rgnv[5] 	arrivalPerc:histogram
field count 1
field mean 1
field stddev nan
field sum 1
field sqrsum 1
field min 1
field max 1
attr interpolationmode  none
attr source  count(arrival)
attr title  "arrival perc, histogram"
bin	-INF	0
bin	0	0
bin	1	1
bin	2	0
statistic RandomGeometricGraph.rgnv[6] 	arrivalTime:histogram
field count 1
field mean 79.396
field stddev nan
field sum 79.396
field sqrsum 6303.724816
field min 79.396
field max 79.396
attr interpolationmode  none
attr source  arrivalTime
attr title  "arrival time, histogram"
bin	-INF	0
bin	78.896	0
bin	78.929333333333	0
bin	78.962666666667	0
bin	78.996	0
bin	79.029333333333	0
bin	79.062666666667	0
bin	79.096	0
bin	79.129333333333	0
bin	79.162666666667	0
bin	79.196	0
bin	79.229333333333	0
bin	79.262666666667	0
bin	79.296	0
bin	79.329333333333	0
bin	79.362666666667	0
bin	79.396	1
bin	79.429333333333	0
bin	79.462666666667	0
bin	79.496	0
bin	79.529333333333	0
bin	79.562666666667	0
bin	79.596	0
bin	79.629333333333	0
bin	79.662666666667	0
bin	79.696	0
bin	79.729333333333	0
bin	79.762666666667	0
bin	79.796	0
bin	79.829333333333	0
bin	79.862666666667	0
bin	79.896	0
statistic RandomGeometricGraph.rgnv[6] 	arrivalPerc:histogram
field count 1
field mean 1
field stddev nan
field sum 1
field sqrsum 1
field min 1
field max 1
attr interpolationmode  none
attr source  count(arrival)
attr title  "arrival perc, histogram"
bin	-INF	0
bin	0	0
bin	1	1
bin	2	0
statistic RandomGeometricGraph.rgnv[7] 	arrivalTime:histogram
field count 1
field mean 147.792
field stddev nan
field sum 147.792
field sqrsum 21842.475264
field min 147.792
field max 147.792
attr interpolationmode  none
attr source  arrivalTime
attr title  "arrival time, histogram"
bin	-INF	0
bin	147.292	0
bin	147.32533333333	0
bin	147.35866666667	0
bin	147.392	0
bin	147.42533333333	0
bin	147.45866666667	0
bin	147.492	0
bin	147.52533333333	0
bin	147.55866666667	0
bin	147.592	0
bin	147.62533333333	0
bin	147.65866666667	0
bin	147.692	0
bin	147.72533333333	0
bin	147.75866666667	0
bin	147.792	1
bin	147.82533333333	0
bin	147.85866666667	0
bin	147.892	0
bin	147.92533333333	0
bin	147.95866666667	0
bin	147.992	0
bin	148.02533333333	0
bin	148.05866666667	0
bin	148.092	0
bin	148.12533333333	0
bin	148.15866666667	0
bin	148.192	0
bin	148.22533333333	0
bin	148.25866666667	0
bin	148.292	0
statistic RandomGeometricGraph.rgnv[7] 	arrivalPerc:histogram
field count 1
field mean 1
field stddev nan
field sum 1
field sqrsum 1
field min 1
field max 1
attr interpolationmode  none
attr source  count(arrival)
attr title  "arrival perc, histogram"
bin	-INF	0
bin	0	0
bin	1	1
bin	2	0
statistic RandomGeometricGraph.rgnv[8] 	arrivalTime:histogram
field count 1
field mean 275.132
field stddev nan
field sum 275.132
field sqrsum 75697.617424
field min 275.132
field max 275.132
attr interpolationmode  none
attr source  arrivalTime
attr title  "arrival time, histogram"
bin	-INF	0
bin	274.632	0
bin	274.66533333333	0
bin	274.69866666667	0
bin	274.732	0
bin	274.76533333333	0
bin	274.79866666667	0
bin	274.832	0
bin	274.86533333333	0
bin	274.89866666667	0
bin	274.932	0
bin	274.96533333333	0
bin	274.99866666667	0
bin	275.032	0
bin	275.06533333333	0
bin	275.09866666667	0
bin	275.132	1
bin	275.16533333333	0
bin	275.19866666667	0
bin	275.232	0
bin	275.26533333333	0
bin	275.29866666667	0
bin	275.332	0
bin	275.36533333333	0
bin	275.39866666667	0
bin	275.432	0
bin	275.46533333333	0
bin	275.49866666667	0
bin	275.532	0
bin	275.56533333333	0
bin	275.59866666667	0
bin	275.632	0
statistic RandomGeometricGraph.rgnv[8] 	arrivalPerc:histogram
field count 1
field mean 1
field stddev nan
field sum 1
field sqrsum 1
field min 1
field max 1
attr interpolationmode  none
attr source  count(arrival)
attr title  "arrival perc, histogram"
bin	-INF	0
bin	0	0
bin	1	1
bin	2	0
statistic RandomGeometricGraph.rgnv[9] 	arrivalTime:histogram
field count 1
field mean 74.406
field stddev nan
field sum 74.406
field sqrsum 5536.252836
field min 74.406
field max 74.406
attr interpolationmode  none
attr source  arrivalTime
attr title  "arrival time, histogram"
bin	-INF	0
bin	73.906	0
bin	73.939333333333	0
bin	73.972666666667	0
bin	74.006	0
bin	74.039333333333	0
bin	74.072666666667	0
bin	74.106	0
bin	74.139333333333	0
bin	74.172666666667	0
bin	74.206	0
bin	74.239333333333	0
bin	74.272666666667	0
bin	74.306	0
bin	74.339333333333	0
bin	74.372666666667	0
bin	74.406	1
bin	74.439333333333	0
bin	74.472666666667	0
bin	74.506	0
bin	74.539333333333	0
bin	74.572666666667	0
bin	74.606	0
bin	74.639333333333	0
bin	74.672666666667	0
bin	74.706	0
bin	74.739333333333	0
bin	74.772666666667	0
bin	74.806	0
bin	74.839333333333	0
bin	74.872666666667	0
bin	74.906	0
statistic RandomGeometricGraph.rgnv[9] 	arrivalPerc:histogram
field count 1
field mean 1
field stddev nan
field sum 1
field sqrsum 1
field min 1
field max 1
attr interpolationmode  none
attr source  count(arrival)
attr title  "arrival perc, histogram"
bin	-INF	0
bin	0	0
bin	1	1
bin	2	0
statistic RandomGeometricGraph.rgnv[10] 	arrivalTime:histogram
field count 1
field mean 133.34
field stddev nan
field sum 133.34
field sqrsum 17779.5556
field min 133.34
field max 133.34
attr interpolationmode  none
attr source  arrivalTime
attr title  "arrival time, histogram"
bin	-INF	0
bin	132.84	0
bin	132.87333333333	0
bin	132.90666666667	0
bin	132.94	0
bin	132.97333333333	0
bin	133.00666666667	0
bin	133.04	0
bin	133.07333333333	0
bin	133.10666666667	0
bin	133.14	0
bin	133.17333333333	0
bin	133.20666666667	0
bin	133.24	0
bin	133.27333333333	0
bin	133.30666666667	0
bin	133.34	1
bin	133.37333333333	0
bin	133.40666666667	0
bin	133.44	0
bin	133.47333333333	0
bin	133.50666666667	0
bin	133.54	0
bin	133.57333333333	0
bin	133.60666666667	0
bin	133.64	0
bin	133.67333333333	0
bin	133.70666666667	0
bin	133.74	0
bin	133.77333333333	0
bin	133.80666666667	0
bin	133.84	0
statistic RandomGeometricGraph.rgnv[10] 	arrivalPerc:histogram
field count 1
field mean 1
field stddev nan
field sum 1
field sqrsum 1
field min 1
field max 1
attr interpolationmode  none
attr source  count(arrival)
attr title  "arrival perc, histogram"
bin	-INF	0
bin	0	0
bin	1	1
bin	2	0
statistic RandomGeometricGraph.rgnv[11] 	arrivalTime:histogram
field count 0
field mean nan
field stddev nan
field sum 0
field sqrsum 0
field min nan
field max nan
attr interpolationmode  none
attr source  arrivalTime
attr title  "arrival time, histogram"
bin	-INF	0
bin	-0.5	0
bin	-0.46666666666667	0
bin	-0.43333333333333	0
bin	-0.4	0
bin	-0.36666666666667	0
bin	-0.33333333333333	0
bin	-0.3	0
bin	-0.26666666666667	0
bin	-0.23333333333333	0
bin	-0.2	0
bin	-0.16666666666667	0
bin	-0.13333333333333	0
bin	-0.1	0
bin	-0.066666666666667	0
bin	-0.033333333333333	0
bin	0	0
bin	0.033333333333333	0
bin	0.066666666666667	0
bin	0.1	0
bin	0.13333333333333	0
bin	0.16666666666667	0
bin	0.2	0
bin	0.23333333333333	0
bin	0.26666666666667	0
bin	0.3	0
bin	0.33333333333333	0
bin	0.36666666666667	0
bin	0.4	0
bin	0.43333333333333	0
bin	0.46666666666667	0
bin	0.5	0
statistic RandomGeometricGraph.rgnv[11] 	arrivalPerc:histogram
field count 0
field mean nan
field stddev nan
field sum 0
field sqrsum 0
field min nan
field max nan
attr interpolationmode  none
attr source  count(arrival)
attr title  "arrival perc, histogram"
bin	-INF	0
bin	-0.5	0
bin	-0.46666666666667	0
bin	-0.43333333333333	0
bin	-0.4	0
bin	-0.36666666666667	0
bin	-0.33333333333333	0
bin	-0.3	0
bin	-0.26666666666667	0
bin	-0.23333333333333	0
bin	-0.2	0
bin	-0.16666666666667	0
bin	-0.13333333333333	0
bin	-0.1	0
bin	-0.066666666666667	0
bin	-0.033333333333333	0
bin	0	0
bin	0.033333333333333	0
bin	0.066666666666667	0
bin	0.1	0
bin	0.13333333333333	0
bin	0.16666666666667	0
bin	0.2	0
bin	0.23333333333333	0
bin	0.26666666666667	0
bin	0.3	0
bin	0.33333333333333	0
bin	0.36666666666667	0
bin	0.4	0
bin	0.43333333333333	0
bin	0.46666666666667	0
bin	0.5	0
statistic RandomGeometricGraph.rgnv[12] 	arrivalTime:histogram
field count 1
field mean 160.023
field stddev nan
field sum 160.023
field sqrsum 25607.360529
field min 160.023
field max 160.023
attr interpolationmode  none
attr source  arrivalTime
attr title  "arrival time, histogram"
bin	-INF	0
bin	159.523	0
bin	159.55633333333	0
bin	159.58966666667	0
bin	159.623	0
bin	159.65633333333	0
bin	159.68966666667	0
bin	159.723	0
bin	159.75633333333	0
bin	159.78966666667	0
bin	159.823	0
bin	159.85633333333	0
bin	159.88966666667	0
bin	159.923	0
bin	159.95633333333	0
bin	159.98966666667	0
bin	160.023	1
bin	160.05633333333	0
bin	160.08966666667	0
bin	160.123	0
bin	160.15633333333	0
bin	160.18966666667	0
bin	160.223	0
bin	160.25633333333	0
bin	160.28966666667	0
bin	160.323	0
bin	160.35633333333	0
bin	160.38966666667	0
bin	160.423	0
bin	160.45633333333	0
bin	160.48966666667	0
bin	160.523	0
statistic RandomGeometricGraph.rgnv[12] 	arrivalPerc:histogram
field count 1
field mean 1
field stddev nan
field sum 1
field sqrsum 1
field min 1
field max 1
attr interpolationmode  none
attr source  count(arrival)
attr title  "arrival perc, histogram"
bin	-INF	0
bin	0	0
bin	1	1
bin	2	0
statistic RandomGeometricGraph.rgnv[13] 	arrivalTime:histogram
field count 1
field mean 147.792
field stddev nan
field sum 147.792
field sqrsum 21842.475264
field min 147.792
field max 147.792
attr interpolationmode  none
attr source  arrivalTime
attr title  "arrival time, histogram"
bin	-INF	0
bin	147.292	0
bin	147.32533333333	0
bin	147.35866666667	0
bin	147.392	0
bin	147.42533333333	0
bin	147.45866666667	0
bin	147.492	0
bin	147.52533333333	0
bin	147.55866666667	0
bin	147.592	0
bin	147.62533333333	0
bin	147.65866666667	0
bin	147.692	0
bin	147.72533333333	0
bin	147.75866666667	0
bin	147.792	1
bin	147.82533333333	0
bin	147.85866666667	0
bin	147.892	0
bin	147.92533333333	0
bin	147.95866666667	0
bin	147.992	0
bin	148.02533333333	0
bin	148.05866666667	0
bin	148.092	0
bin	148.12533333333	0
bin	148.15866666667	0
bin	148.192	0
bin	148.22533333333	0
bin	148.25866666667	0
bin	148.292	0
statistic RandomGeometricGraph.rgnv[13] 	arrivalPerc:histogram
field count 1
field mean 1
field stddev nan
field sum 1
field sqrsum 1
field min 1
field max 1
attr interpolationmode  none
attr source  count(arrival)
attr title  "arrival perc, histogram"
bin	-INF	0
bin	0	0
bin	1	1
bin	2	0
statistic RandomGeometricGraph.rgnv[14] 	arrivalTime:histogram
field count 1
field mean 25.472
field stddev nan
field sum 25.472
field sqrsum 648.822784
field min 25.472
field max 25.472
attr interpolationmode  none
attr source  arrivalTime
attr title  "arrival time, histogram"
bin	-INF	0
bin	24.972	0
bin	25.005333333333	0
bin	25.038666666667	0
bin	25.072	0
bin	25.105333333333	0
bin	25.138666666667	0
bin	25.172	0
bin	25.205333333333	0
bin	25.238666666667	0
bin	25.272	0
bin	25.305333333333	0
bin	25.338666666667	0
bin	25.372	0
bin	25.405333333333	0
bin	25.438666666667	0
bin	25.472	1
bin	25.505333333333	0
bin	25.538666666667	0
bin	25.572	0
bin	25.605333333333	0
bin	25.638666666667	0
bin	25.672	0
bin	25.705333333333	0
bin	25.738666666667	0
bin	25.772	0
bin	25.805333333333	0
bin	25.838666666667	0
bin	25.872	0
bin	25.905333333333	0
bin	25.938666666667	0
bin	25.972	0
statistic RandomGeometricGraph.rgnv[14] 	arrivalPerc:histogram
field count 1
field mean 1
field stddev nan
field sum 1
field sqrsum 1
field min 1
field max 1
attr interpolationmode  none
attr source  count(arrival)
attr title  "arrival perc, histogram"
bin	-INF	0
bin	0	0
bin	1	1
bin	2	0
statistic RandomGeometricGraph.rgnv[15] 	arrivalTime:histogram
field count 1
field mean 145.571
field stddev nan
field sum 145.571
field sqrsum 21190.916041
field min 145.571
field max 145.571
attr interpolationmode  none
attr source  arrivalTime
attr title  "arrival time, histogram"
bin	-INF	0
bin	145.071	0
bin	145.10433333333	0
bin	145.13766666667	0
bin	145.171	0
bin	145.20433333333	0
bin	145.23766666667	0
bin	145.271	0
bin	145.30433333333	0
bin	145.33766666667	0
bin	145.371	0
bin	145.40433333333	0
bin	145.43766666667	0
bin	145.471	0
bin	145.50433333333	0
bin	145.53766666667	0
bin	145.571	1
bin	145.60433333333	0
bin	145.63766666667	0
bin	145.671	0
bin	145.70433333333	0
bin	145.73766666667	0
bin	145.771	0
bin	145.80433333333	0
bin	145.83766666667	0
bin	145.871	0
bin	145.90433333333	0
bin	145.93766666667	0
bin	145.971	0
bin	146.00433333333	0
bin	146.03766666667	0
bin	146.071	0
statistic RandomGeometricGraph.rgnv[15] 	arrivalPerc:histogram
field count 1
field mean 1
field stddev nan
field sum 1
field sqrsum 1
field min 1
field max 1
attr interpolationmode  none
attr source  count(arrival)
attr title  "arrival perc, histogram"
bin	-INF	0
bin	0	0
bin	1	1
bin	2	0
statistic RandomGeometricGraph.rgnv[16] 	arrivalTime:histogram
field count 0
field mean nan
field stddev nan
field sum 0
field sqrsum 0
field min nan
field max nan
attr interpolationmode  none
attr source  arrivalTime
attr title  "arrival time, histogram"
bin	-INF	0
bin	-0.5	0
bin	-0.46666666666667	0
bin	-0.43333333333333	0
bin	-0.4	0
bin	-0.36666666666667	0
bin	-0.33333333333333	0
bin	-0.3	0
bin	-0.26666666666667	0
bin	-0.23333333333333	0
bin	-0.2	0
bin	-0.16666666666667	0
bin	-0.13333333333333	0
bin	-0.1	0
bin	-0.066666666666667	0
bin	-0.033333333333333	0
bin	0	0
bin	0.033333333333333	0
bin	0.066666666666667	0
bin	0.1	0
bin	0.13333333333333	0
bin	0.16666666666667	0
bin	0.2	0
bin	0.23333333333333	0
bin	0.26666666666667	0
bin	0.3	0
bin	0.33333333333333	0
bin	0.36666666666667	0
bin	0.4	0
bin	0.43333333333333	0
bin	0.46666666666667	0
bin	0.5	0
statistic RandomGeometricGraph.rgnv[16] 	arrivalPerc:histogram
field count 0
field mean nan
field stddev nan
field sum 0
field sqrsum 0
field min nan
field max nan
attr interpolationmode  none
attr source  count(arrival)
attr title  "arrival perc, histogram"
bin	-INF	0
bin	-0.5	0
bin	-0.46666666666667	0
bin	-0.43333333333333	0
bin	-0.4	0
bin	-0.36666666666667	0
bin	-0.33333333333333	0
bin	-0.3	0
bin	-0.26666666666667	0
bin	-0.23333333333333	0
bin	-0.2	0
bin	-0.16666666666667	0
bin	-0.13333333333333	0
bin	-0.1	0
bin	-0.066666666666667	0
bin	-0.033333333333333	0
bin	0	0
bin	0.033333333333333	0
bin	0.066666666666667	0
bin	0.1	0
bin	0.13333333333333	0
bin	0.16666666666667	0
bin	0.2	0
bin	0.23333333333333	0
bin	0.26666666666667	0
bin	0.3	0
bin	0.33333333333333	0
bin	0.36666666666667	0
bin	0.4	0
bin	0.43333333333333	0
bin	0.46666666666667	0
bin	0.5	0
statistic RandomGeometricGraph.rgnv[17] 	arrivalTime:histogram
field count 1
field mean 98.848
field stddev nan
field sum 98.848
field sqrsum 9770.927104
field min 98.848
field max 98.848
attr interpolationmode  none
attr source  arrivalTime
attr title  "arrival time, histogram"
bin	-INF	0
bin	98.348	0
bin	98.381333333333	0
bin	98.414666666667	0
bin	98.448	0
bin	98.481333333333	0
bin	98.514666666667	0
bin	98.548	0
bin	98.581333333333	0
bin	98.614666666667	0
bin	98.648	0
bin	98.681333333333	0
bin	98.714666666667	0
bin	98.748	0
bin	98.781333333333	0
bin	98.814666666667	0
bin	98.848	1
bin	98.881333333333	0
bin	98.914666666667	0
bin	98.948	0
bin	98.981333333333	0
bin	99.014666666667	0
bin	99.048	0
bin	99.081333333333	0
bin	99.114666666667	0
bin	99.148	0
bin	99.181333333333	0
bin	99.214666666667	0
bin	99.248	0
bin	99.281333333333	0
bin	99.314666666667	0
bin	99.348	0
statistic RandomGeometricGraph.rgnv[17] 	arrivalPerc:histogram
field count 1
field mean 1
field stddev nan
field sum 1
field sqrsum 1
field min 1
field max 1
attr interpolationmode  none
attr source  count(arrival)
attr title  "arrival perc, histogram"
bin	-INF	0
bin	0	0
bin	1	1
bin	2	0
statistic RandomGeometricGraph.rgnv[18] 	arrivalTime:histogram
field count 1
field mean 103.868
field stddev nan
field sum 103.868
field sqrsum 10788.561424
field min 103.868
field max 103.868
attr interpolationmode  none
attr source  arrivalTime
attr title  "arrival time, histogram"
bin	-INF	0
bin	103.368	0
bin	103.40133333333	0
bin	103.43466666667	0
bin	103.468	0
bin	103.50133333333	0
bin	103.53466666667	0
bin	103.568	0
bin	103.60133333333	0
bin	103.63466666667	0
bin	103.668	0
bin	103.70133333333	0
bin	103.73466666667	0
bin	103.768	0
bin	103.80133333333	0
bin	103.83466666667	0
bin	103.868	1
bin	103.90133333333	0
bin	103.93466666667	0
bin	103.968	0
bin	104.00133333333	0
bin	104.03466666667	0
bin	104.068	0
bin	104.10133333333	0
bin	104.13466666667	0
bin	104.168	0
bin	104.20133333333	0
bin	104.23466666667	0
bin	104.268	0
bin	104.30133333333	0
bin	104.33466666667	0
bin	104.368	0
statistic RandomGeometricGraph.rgnv[18] 	arrivalPerc:histogram
field count 1
field mean 1
field stddev nan
field sum 1
field sqrsum 1
field min 1
field max 1
attr interpolationmode  none
attr source  count(arrival)
attr title  "arrival perc, histogram"
bin	-INF	0
bin	0	0
bin	1	1
bin	2	0
statistic RandomGeometricGraph.rgnv[19] 	arrivalTime:histogram
field count 1
field mean 250.67
field stddev nan
field sum 250.67
field sqrsum 62835.4489
field min 250.67
field max 250.67
attr interpolationmode  none
attr source  arrivalTime
attr title  "arrival time, histogram"
bin	-INF	0
bin	250.17	0
bin	250.20333333333	0
bin	250.23666666667	0
bin	250.27	0
bin	250.30333333333	0
bin	250.33666666667	0
bin	250.37	0
bin	250.40333333333	0
bin	250.43666666667	0
bin	250.47	0
bin	250.50333333333	0
bin	250.53666666667	0
bin	250.57	0
bin	250.60333333333	0
bin	250.63666666667	0
bin	250.67	1
bin	250.70333333333	0
bin	250.73666666667	0
bin	250.77	0
bin	250.80333333333	0
bin	250.83666666667	0
bin	250.87	0
bin	250.90333333333	0
bin	250.93666666667	0
bin	250.97	0
bin	251.00333333333	0
bin	251.03666666667	0
bin	251.07	0
bin	251.10333333333	0
bin	251.13666666667	0
bin	251.17	0
statistic RandomGeometricGraph.rgnv[19] 	arrivalPerc:histogram
field count 1
field mean 1
field stddev nan
field sum 1
field sqrsum 1
field min 1
field max 1
attr interpolationmode  none
attr source  count(arrival)
attr title  "arrival perc, histogram"
bin	-INF	0
bin	0	0
bin	1	1
bin	2	0
statistic RandomGeometricGraph.rgnv[20] 	arrivalTime:histogram
field count 1
field mean 111.099
field stddev nan
field sum 111.099
field sqrsum 12342.987801
field min 111.099
field max 111.099
attr interpolationmode  none
attr source  arrivalTime
attr title  "arrival time, histogram"
bin	-INF	0
bin	110.599	0
bin	110.63233333333	0
bin	110.66566666667	0
bin	110.699	0
bin	110.73233333333	0
bin	110.76566666667	0
bin	110.799	0
bin	110.83233333333	0
bin	110.86566666667	0
bin	110.899	0
bin	110.93233333333	0
bin	110.96566666667	0
bin	110.999	0
bin	111.03233333333	0
bin	111.06566666667	0
bin	111.099	1
bin	111.13233333333	0
bin	111.16566666667	0
bin	111.199	0
bin	111.23233333333	0
bin	111.26566666667	0
bin	111.299	0
bin	111.33233333333	0
bin	111.36566666667	0
bin	111.399	0
bin	111.43233333333	0
bin	111.46566666667	0
bin	111.499	0
bin	111.53233333333	0
bin	111.56566666667	0
bin	111.599	0
statistic RandomGeometricGraph.rgnv[20] 	arrivalPerc:histogram
field count 1
field mean 1
field stddev nan
field sum 1
field sqrsum 1
field min 1
field max 1
attr interpolationmode  none
attr source  count(arrival)
attr title  "arrival perc, histogram"
bin	-INF	0
bin	0	0
bin	1	1
bin	2	0
statistic RandomGeometricGraph.rgnv[21] 	arrivalTime:histogram
field count 1
field mean 133.34
field stddev nan
field sum 133.34
field sqrsum 17779.5556
field min 133.34
field max 133.34
attr interpolationmode  none
attr source  arrivalTime
attr title  "arrival time, histogram"
bin	-INF	0
bin	132.84	0
bin	132.87333333333	0
bin	132.90666666667	0
bin	132.94	0
bin	132.97333333333	0
bin	133.00666666667	0
bin	133.04	0
bin	133.07333333333	0
bin	133.10666666667	0
bin	133.14	0
bin	133.17333333333	0
bin	133.20666666667	0
bin	133.24	0
bin	133.27333333333	0
bin	133.30666666667	0
bin	133.34	1
bin	133.37333333333	0
bin	133.40666666667	0
bin	133.44	0
bin	133.47333333333	0
bin	133.50666666667	0
bin	133.54	0
bin	133.57333333333	0
bin	133.60666666667	0
bin	133.64	0
bin	133.67333333333	0
bin	133.70666666667	0
bin	133.74	0
bin	133.77333333333	0
bin	133.80666666667	0
bin	133.84	0
statistic RandomGeometricGraph.rgnv[21] 	arrivalPerc:histogram
field count 1
field mean 1
field stddev nan
field sum 1
field sqrsum 1
field min 1
field max 1
attr interpolationmode  none
attr source  count(arrival)
attr title  "arrival perc, histogram"
bin	-INF	0
bin	0	0
bin	1	1
bin	2	0
statistic RandomGeometricGraph.rgnv[22] 	arrivalTime:histogram
field count 1
field mean 147.802
field stddev nan
field sum 147.802
field sqrsum 21845.431204
field min 147.802
field max 147.802
attr interpolationmode  none
attr source  arrivalTime
attr title  "arrival time, histogram"
bin	-INF	0
bin	147.302	0
bin	147.33533333333	0
bin	147.36866666667	0
bin	147.402	0
bin	147.43533333333	0
bin	147.46866666667	0
bin	147.502	0
bin	147.53533333333	0
bin	147.56866666667	0
bin	147.602	0
bin	147.63533333333	0
bin	147.66866666667	0
bin	147.702	0
bin	147.73533333333	0
bin	147.76866666667	0
bin	147.802	1
bin	147.83533333333	0
bin	147.86866666667	0
bin	147.902	0
bin	147.93533333333	0
bin	147.96866666667	0
bin	148.002	0
bin	148.03533333333	0
bin	148.06866666667	0
bin	148.102	0
bin	148.13533333333	0
bin	148.16866666667	0
bin	148.202	0
bin	148.23533333333	0
bin	148.26866666667	0
bin	148.302	0
statistic RandomGeometricGraph.rgnv[22] 	arrivalPerc:histogram
field count 1
field mean 1
field stddev nan
field sum 1
field sqrsum 1
field min 1
field max 1
attr interpolationmode  none
attr source  count(arrival)
attr title  "arrival perc, histogram"
bin	-INF	0
bin	0	0
bin	1	1
bin	2	0
statistic RandomGeometricGraph.rgnv[23] 	arrivalTime:histogram
field count 1
field mean 194.495
field stddev nan
field sum 194.495
field sqrsum 37828.305025
field min 194.495
field max 194.495
attr interpolationmode  none
attr source  arrivalTime
attr title  "arrival time, histogram"
bin	-INF	0
bin	193.995	0
bin	194.02833333333	0
bin	194.06166666667	0
bin	194.095	0
bin	194.12833333333	0
bin	194.16166666667	0
bin	194.195	0
bin	194.22833333333	0
bin	194.26166666667	0
bin	194.295	0
bin	194.32833333333	0
bin	194.36166666667	0
bin	194.395	0
bin	194.42833333333	0
bin	194.46166666667	0
bin	194.495	1
bin	194.52833333333	0
bin	194.56166666667	0
bin	194.595	0
bin	194.62833333333	0
bin	194.66166666667	0
bin	194.695	0
bin	194.72833333333	0
bin	194.76166666667	0
bin	194.795	0
bin	194.82833333333	0
bin	194.86166666667	0
bin	194.895	0
bin	194.92833333333	0
bin	194.96166666667	0
bin	194.995	0
statistic RandomGeometricGraph.rgnv[23] 	arrivalPerc:histogram
field count 1
field mean 1
field stddev nan
field sum 1
field sqrsum 1
field min 1
field max 1
attr interpolationmode  none
attr source  count(arrival)
attr title  "arrival perc, histogram"
bin	-INF	0
bin	0	0
bin	1	1
bin	2	0
statistic RandomGeometricGraph.rgnv[24] 	arrivalTime:histogram
field count 1
field mean 128.33
field stddev nan
field sum 128.33
field sqrsum 16468.5889
field min 128.33
field max 128.33
attr interpolationmode  none
attr source  arrivalTime
attr title  "arrival time, histogram"
bin	-INF	0
bin	127.83	0
bin	127.86333333333	0
bin	127.89666666667	0
bin	127.93	0
bin	127.96333333333	0
bin	127.99666666667	0
bin	128.03	0
bin	128.06333333333	0
bin	128.09666666667	0
bin	128.13	0
bin	128.16333333333	0
bin	128.19666666667	0
bin	128.23	0
bin	128.26333333333	0
bin	128.29666666667	0
bin	128.33	1
bin	128.36333333333	0
bin	128.39666666667	0
bin	128.43	0
bin	128.46333333333	0
bin	128.49666666667	0
bin	128.53	0
bin	128.56333333333	0
bin	128.59666666667	0
bin	128.63	0
bin	128.66333333333	0
bin	128.69666666667	0
bin	128.73	0
bin	128.76333333333	0
bin	128.79666666667	0
bin	128.83	0
statistic RandomGeometricGraph.rgnv[24] 	arrivalPerc:histogram
field count 1
field mean 1
field stddev nan
field sum 1
field sqrsum 1
field min 1
field max 1
attr interpolationmode  none
attr source  count(arrival)
attr title  "arrival perc, histogram"
bin	-INF	0
bin	0	0
bin	1	1
bin	2	0
statistic RandomGeometricGraph.rgnv[25] 	arrivalTime:histogram
field count 1
field mean 290.142
field stddev nan
field sum 290.142
field sqrsum 84182.380164
field min 290.142
field max 290.142
attr interpolationmode  none
attr source  arrivalTime
attr title  "arrival time, histogram"
bin	-INF	0
bin	289.642	0
bin	289.67533333333	0
bin	289.70866666667	0
bin	289.742	0
bin	289.77533333333	0
bin	289.80866666667	0
bin	289.842	0
bin	289.87533333333	0
bin	289.90866666667	0
bin	289.942	0
bin	289.97533333333	0
bin	290.00866666667	0
bin	290.042	0
bin	290.07533333333	0
bin	290.10866666667	0
bin	290.142	1
bin	290.17533333333	0
bin	290.20866666667	0
bin	290.242	0
bin	290.27533333333	0
bin	290.30866666667	0
bin	290.342	0
bin	290.37533333333	0
bin	290.40866666667	0
bin	290.442	0
bin	290.47533333333	0
bin	290.50866666667	0
bin	290.542	0
bin	290.57533333333	0
bin	290.60866666667	0
bin	290.642	0
statistic RandomGeometricGraph.rgnv[25] 	arrivalPerc:histogram
field count 1
field mean 1
field stddev nan
field sum 1
field sqrsum 1
field min 1
field max 1
attr interpolationmode  none
attr source  count(arrival)
attr title  "arrival perc, histogram"
bin	-INF	0
bin	0	0
bin	1	1
bin	2	0
statistic RandomGeometricGraph.rgnv[26] 	arrivalTime:histogram
field count 1
field mean 67.175
field stddev nan
field sum 67.175
field sqrsum 4512.480625
field min 67.175
field max 67.175
attr interpolationmode  none
attr source  arrivalTime
attr title  "arrival time, histogram"
bin	-INF	0
bin	66.675	0
bin	66.708333333333	0
bin	66.741666666667	0
bin	66.775	0
bin	66.808333333333	0
bin	66.841666666667	0
bin	66.875	0
bin	66.908333333333	0
bin	66.941666666667	0
bin	66.975	0
bin	67.008333333333	0
bin	67.041666666667	0
bin	67.075	0
bin	67.108333333333	0
bin	67.141666666667	0
bin	67.175	1
bin	67.208333333333	0
bin	67.241666666667	0
bin	67.275	0
bin	67.308333333333	0
bin	67.341666666667	0
bin	67.375	0
bin	67.408333333333	0
bin	67.441666666667	0
bin	67.475	0
bin	67.508333333333	0
bin	67.541666666667	0
bin	67.575	0
bin	67.608333333333	0
bin	67.641666666667	0
bin	67.675	0
statistic RandomGeometricGraph.rgnv[26] 	arrivalPerc:histogram
field count 1
field mean 1
field stddev nan
field sum 1
field sqrsum 1
field min 1
field max 1
attr interpolationmode  none
attr source  count(arrival)
attr title  "arrival perc, histogram"
bin	-INF	0
bin	0	0
bin	1	1
bin	2	0
statistic RandomGeometricGraph.rgnv[27] 	arrivalTime:histogram
field count 1
field mean 135.551
field stddev nan
field sum 135.551
field sqrsum 18374.073601
field min 135.551
field max 135.551
attr interpolationmode  none
attr source  arrivalTime
attr title  "arrival time, histogram"
bin	-INF	0
bin	135.051	0
bin	135.08433333333	0
bin	135.11766666667	0
bin	135.151	0
bin	135.18433333333	0
bin	135.21766666667	0
bin	135.251	0
bin	135.28433333333	0
bin	135.31766666667	0
bin	135.351	0
bin	135.38433333333	0
bin	135.41766666667	0
bin	135.451	0
bin	135.48433333333	0
bin	135.51766666667	0
bin	135.551	1
bin	135.58433333333	0
bin	135.61766666667	0
bin	135.651	0
bin	135.68433333333	0
bin	135.71766666667	0
bin	135.751	0
bin	135.78433333333	0
bin	135.81766666667	0
bin	135.851	0
bin	135.88433333333	0
bin	135.91766666667	0
bin	135.951	0
bin	135.98433333333	0
bin	136.01766666667	0
bin	136.051	0
statistic RandomGeometricGraph.rgnv[27] 	arrivalPerc:histogram
field count 1
field mean 1
field stddev nan
field sum 1
field sqrsum 1
field min 1
field max 1
attr interpolationmode  none
attr source  count(arrival)
attr title  "arrival perc, histogram"
bin	-INF	0
bin	0	0
bin	1	1
bin	2	0
statistic RandomGeometricGraph.rgnv[28] 	arrivalTime:histogram
field count 1
field mean 54.944
field stddev nan
field sum 54.944
field sqrsum 3018.843136
field min 54.944
field max 54.944
attr interpolationmode  none
attr source  arrivalTime
attr title  "arrival time, histogram"
bin	-INF	0
bin	54.444	0
bin	54.477333333333	0
bin	54.510666666667	0
bin	54.544	0
bin	54.577333333333	0
bin	54.610666666667	0
bin	54.644	0
bin	54.677333333333	0
bin	54.710666666667	0
bin	54.744	0
bin	54.777333333333	0
bin	54.810666666667	0
bin	54.844	0
bin	54.877333333333	0
bin	54.910666666667	0
bin	54.944	1
bin	54.977333333333	0
bin	55.010666666667	0
bin	55.044	0
bin	55.077333333333	0
bin	55.110666666667	0
bin	55.144	0
bin	55.177333333333	0
bin	55.210666666667	0
bin	55.244	0
bin	55.277333333333	0
bin	55.310666666667	0
bin	55.344	0
bin	55.377333333333	0
bin	55.410666666667	0
bin	55.444	0
statistic RandomGeometricGraph.rgnv[28] 	arrivalPerc:histogram
field count 1
field mean 1
field stddev nan
field sum 1
field sqrsum 1
field min 1
field max 1
attr interpolationmode  none
attr source  count(arrival)
attr title  "arrival perc, histogram"
bin	-INF	0
bin	0	0
bin	1	1
bin	2	0
statistic RandomGeometricGraph.rgnv[29] 	arrivalTime:histogram
field count 1
field mean 201.736
field stddev nan
field sum 201.736
field sqrsum 40697.413696
field min 201.736
field max 201.736
attr interpolationmode  none
attr source  arrivalTime
attr title  "arrival time, histogram"
bin	-INF	0
bin	201.236	0
bin	201.26933333333	0
bin	201.30266666667	0
bin	201.336	0
bin	201.36933333333	0
bin	201.40266666667	0
bin	201.436	0
bin	201.46933333333	0
bin	201.50266666667	0
bin	201.536	0
bin	201.56933333333	0
bin	201.60266666667	0
bin	201.636	0
bin	201.66933333333	0
bin	201.70266666667	0
bin	201.736	1
bin	201.76933333333	0
bin	201.80266666667	0
bin	201.836	0
bin	201.86933333333	0
bin	201.90266666667	0
bin	201.936	0
bin	201.96933333333	0
bin	202.00266666667	0
bin	202.036	0
bin	202.06933333333	0
bin	202.10266666667	0
bin	202.136	0
bin	202.16933333333	0
bin	202.20266666667	0
bin	202.236	0
statistic RandomGeometricGraph.rgnv[29] 	arrivalPerc:histogram
field count 1
field mean 1
field stddev nan
field sum 1
field sqrsum 1
field min 1
field max 1
attr interpolationmode  none
attr source  count(arrival)
attr title  "arrival perc, histogram"
bin	-INF	0
bin	0	0
bin	1	1
bin	2	0
statistic RandomGeometricGraph.rgnv[30] 	arrivalTime:histogram
field count 1
field mean 213.957
field stddev nan
field sum 213.957
field sqrsum 45777.597849
field min 213.957
field max 213.957
attr interpolationmode  none
attr source  arrivalTime
attr title  "arrival time, histogram"
bin	-INF	0
bin	213.457	0
bin	213.49033333333	0
bin	213.52366666667	0
bin	213.557	0
bin	213.59033333333	0
bin	213.62366666667	0
bin	213.657	0
bin	213.69033333333	0
bin	213.72366666667	0
bin	213.757	0
bin	213.79033333333	0
bin	213.82366666667	0
bin	213.857	0
bin	213.89033333333	0
bin	213.92366666667	0
bin	213.957	1
bin	213.99033333333	0
bin	214.02366666667	0
bin	214.057	0
bin	214.09033333333	0
bin	214.12366666667	0
bin	214.157	0
bin	214.19033333333	0
bin	214.22366666667	0
bin	214.257	0
bin	214.29033333333	0
bin	214.32366666667	0
bin	214.357	0
bin	214.39033333333	0
bin	214.42366666667	0
bin	214.457	0
statistic RandomGeometricGraph.rgnv[30] 	arrivalPerc:histogram
field count 1
field mean 1
field stddev nan
field sum 1
field sqrsum 1
field min 1
field max 1
attr interpolationmode  none
attr source  count(arrival)
attr title  "arrival perc, histogram"
bin	-INF	0
bin	0	0
bin	1	1
bin	2	0
statistic RandomGeometricGraph.rgnv[31] 	arrivalTime:histogram
field count 1
field mean 339.066
field stddev nan
field sum 339.066
field sqrsum 114965.752356
field min 339.066
field max 339.066
attr interpolationmode  none
attr source  arrivalTime
attr title  "arrival time, histogram"
bin	-INF	0
bin	338.566	0
bin	338.59933333333	0
bin	338.63266666667	0
bin	338.666	0
bin	338.69933333333	0
bin	338.73266666667	0
bin	338.766	0
bin	338.79933333333	0
bin	338.83266666667	0
bin	338.866	0
bin	338.89933333333	0
bin	338.93266666667	0
bin	338.966	0
bin	338.99933333333	0
bin	339.03266666667	0
bin	339.066	1
bin	339.09933333333	0
bin	339.13266666667	0
bin	339.166	0
bin	339.19933333333	0
bin	339.23266666667	0
bin	339.266	0
bin	339.29933333333	0
bin	339.33266666667	0
bin	339.366	0
bin	339.39933333333	0
bin	339.43266666667	0
bin	339.466	0
bin	339.49933333333	0
bin	339.53266666667	0
bin	339.566	0
statistic RandomGeometricGraph.rgnv[31] 	arrivalPerc:histogram
field count 1
field mean 1
field stddev nan
field sum 1
field sqrsum 1
field min 1
field max 1
attr interpolationmode  none
attr source  count(arrival)
attr title  "arrival perc, histogram"
bin	-INF	0
bin	0	0
bin	1	1
bin	2	0
statistic RandomGeometricGraph.rgnv[32] 	arrivalTime:histogram
field count 1
field mean 72.175
field stddev nan
field sum 72.175
field sqrsum 5209.230625
field min 72.175
field max 72.175
attr interpolationmode  none
attr source  arrivalTime
attr title  "arrival time, histogram"
bin	-INF	0
bin	71.675	0
bin	71.708333333333	0
bin	71.741666666667	0
bin	71.775	0
bin	71.808333333333	0
bin	71.841666666667	0
bin	71.875	0
bin	71.908333333333	0
bin	71.941666666667	0
bin	71.975	0
bin	72.008333333333	0
bin	72.041666666667	0
bin	72.075	0
bin	72.108333333333	0
bin	72.141666666667	0
bin	72.175	1
bin	72.208333333333	0
bin	72.241666666667	0
bin	72.275	0
bin	72.308333333333	0
bin	72.341666666667	0
bin	72.375	0
bin	72.408333333333	0
bin	72.441666666667	0
bin	72.475	0
bin	72.508333333333	0
bin	72.541666666667	0
bin	72.575	0
bin	72.608333333333	0
bin	72.641666666667	0
bin	72.675	0
statistic RandomGeometricGraph.rgnv[32] 	arrivalPerc:histogram
field count 1
field mean 1
field stddev nan
field sum 1
field sqrsum 1
field min 1
field max 1
attr interpolationmode  none
attr source  count(arrival)
attr title  "arrival perc, histogram"
bin	-INF	0
bin	0	0
bin	1	1
bin	2	0
statistic RandomGeometricGraph.rgnv[33] 	arrivalTime:histogram
field count 1
field mean 213.977
field stddev nan
field sum 213.977
field sqrsum 45786.156529
field min 213.977
field max 213.977
attr interpolationmode  none
attr source  arrivalTime
attr title  "arrival time, histogram"
bin	-INF	0
bin	213.477	0
bin	213.51033333333	0
bin	213.54366666667	0
bin	213.577	0
bin	213.61033333333	0
bin	213.64366666667	0
bin	213.677	0
bin	213.71033333333	0
bin	213.74366666667	0
bin	213.777	0
bin	213.81033333333	0
bin	213.84366666667	0
bin	213.877	0
bin	213.91033333333	0
bin	213.94366666667	0
bin	213.977	1
bin	214.01033333333	0
bin	214.04366666667	0
bin	214.077	0
bin	214.11033333333	0
bin	214.14366666667	0
bin	214.177	0
bin	214.21033333333	0
bin	214.24366666667	0
bin	214.277	0
bin	214.31033333333	0
bin	214.34366666667	0
bin	214.377	0
bin	214.41033333333	0
bin	214.44366666667	0
bin	214.477	0
statistic RandomGeometricGraph.rgnv[33] 	arrivalPerc:histogram
field count 1
field mean 1
field stddev nan
field sum 1
field sqrsum 1
field min 1
field max 1
attr interpolationmode  none
attr source  count(arrival)
attr title  "arrival perc, histogram"
bin	-INF	0
bin	0	0
bin	1	1
bin	2	0
statistic RandomGeometricGraph.rgnv[34] 	arrivalTime:histogram
field count 0
field mean nan
field stddev nan
field sum 0
field sqrsum 0
field min nan
field max nan
attr interpolationmode  none
attr source  arrivalTime
attr title  "arrival time, histogram"
bin	-INF	0
bin	-0.5	0
bin	-0.46666666666667	0
bin	-0.43333333333333	0
bin	-0.4	0
bin	-0.36666666666667	0
bin	-0.33333333333333	0
bin	-0.3	0
bin	-0.26666666666667	0
bin	-0.23333333333333	0
bin	-0.2	0
bin	-0.16666666666667	0
bin	-0.13333333333333	0
bin	-0.1	0
bin	-0.066666666666667	0
bin	-0.033333333333333	0
bin	0	0
bin	0.033333333333333	0
bin	0.066666666666667	0
bin	0.1	0
bin	0.13333333333333	0
bin	0.16666666666667	0
bin	0.2	0
bin	0.23333333333333	0
bin	0.26666666666667	0
bin	0.3	0
bin	0.33333333333333	0
bin	0.36666666666667	0
bin	0.4	0
bin	0.43333333333333	0
bin	0.46666666666667	0
bin	0.5	0
statistic RandomGeometricGraph.rgnv[34] 	arrivalPerc:histogram
field count 0
field mean nan
field stddev nan
field sum 0
field sqrsum 0
field min nan
field max nan
attr interpolationmode  none
attr source  count(arrival)
attr title  "arrival perc, histogram"
bin	-INF	0
bin	-0.5	0
bin	-0.46666666666667	0
bin	-0.43333333333333	0
bin	-0.4	0
bin	-0.36666666666667	0
bin	-0.33333333333333	0
bin	-0.3	0
bin	-0.26666666666667	0
bin	-0.23333333333333	0
bin	-0.2	0
bin	-0.16666666666667	0
bin	-0.13333333333333	0
bin	-0.1	0
bin	-0.066666666666667	0
bin	-0.033333333333333	0
bin	0	0
bin	0.033333333333333	0
bin	0.066666666666667	0
bin	0.1	0
bin	0.13333333333333	0
bin	0.16666666666667	0
bin	0.2	0
bin	0.23333333333333	0
bin	0.26666666666667	0
bin	0.3	0
bin	0.33333333333333	0
bin	0.36666666666667	0
bin	0.4	0
bin	0.43333333333333	0
bin	0.46666666666667	0
bin	0.5	0
statistic RandomGeometricGraph.rgnv[35] 	arrivalTime:histogram
field count 0
field mean nan
field stddev nan
field sum 0
field sqrsum 0
field min nan
field max nan
attr interpolationmode  none
attr source  arrivalTime
attr title  "arrival time, histogram"
bin	-INF	0
bin	-0.5	0
bin	-0.46666666666667	0
bin	-0.43333333333333	0
bin	-0.4	0
bin	-0.36666666666667	0
bin	-0.33333333333333	0
bin	-0.3	0
bin	-0.26666666666667	0
bin	-0.23333333333333	0
bin	-0.2	0
bin	-0.16666666666667	0
bin	-0.13333333333333	0
bin	-0.1	0
bin	-0.066666666666667	0
bin	-0.033333333333333	0
bin	0	0
bin	0.033333333333333	0
bin	0.066666666666667	0
bin	0.1	0
bin	0.13333333333333	0
bin	0.16666666666667	0
bin	0.2	0
bin	0.23333333333333	0
bin	0.26666666666667	0
bin	0.3	0
bin	0.33333333333333	0
bin	0.36666666666667	0
bin	0.4	0
bin	0.43333333333333	0
bin	0.46666666666667	0
bin	0.5	0
statistic RandomGeometricGraph.rgnv[35] 	arrivalPerc:histogram
field count 0
field mean nan
field stddev nan
field sum 0
field sqrsum 0
field min nan
field max nan
attr interpolationmode  none
attr source  count(arrival)
attr title  "arrival perc, histogram"
bin	-INF	0
bin	-0.5	0
bin	-0.46666666666667	0
bin	-0.43333333333333	0
bin	-0.4	0
bin	-0.36666666666667	0
bin	-0.33333333333333	0
bin	-0.3	0
bin	-0.26666666666667	0
bin	-0.23333333333333	0
bin	-0.2	0
bin	-0.16666666666667	0
bin	-0.13333333333333	0
bin	-0.1	0
bin	-0.066666666666667	0
bin	-0.033333333333333	0
bin	0	0
bin	0.033333333333333	0
bin	0.066666666666667	0
bin	0.1	0
bin	0.13333333333333	0
bin	0.16666666666667	0
bin	0.2	0
bin	0.23333333333333	0
bin	0.26666666666667	0
bin	0.3	0
bin	0.33333333333333	0
bin	0.36666666666667	0
bin	0.4	0
bin	0.43333333333333	0
bin	0.46666666666667	0
bin	0.5	0
statistic RandomGeometricGraph.rgnv[36] 	arrivalTime:histogram
field count 1
field mean 62.165
field stddev nan
field sum 62.165
field sqrsum 3864.487225
field min 62.165
field max 62.165
attr interpolationmode  none
attr source  arrivalTime
attr title  "arrival time, histogram"
bin	-INF	0
bin	61.665	0
bin	61.698333333333	0
bin	61.731666666667	0
bin	61.765	0
bin	61.798333333333	0
bin	61.831666666667	0
bin	61.865	0
bin	61.898333333333	0
bin	61.931666666667	0
bin	61.965	0
bin	61.998333333333	0
bin	62.031666666667	0
bin	62.065	0
bin	62.098333333333	0
bin	62.131666666667	0
bin	62.165	1
bin	62.198333333333	0
bin	62.231666666667	0
bin	62.265	0
bin	62.298333333333	0
bin	62.331666666667	0
bin	62.365	0
bin	62.398333333333	0
bin	62.431666666667	0
bin	62.465	0
bin	62.498333333333	0
bin	62.531666666667	0
bin	62.565	0
bin	62.598333333333	0
bin	62.631666666667	0
bin	62.665	0
statistic RandomGeometricGraph.rgnv[36] 	arrivalPerc:histogram
field count 1
field mean 1
field stddev nan
field sum 1
field sqrsum 1
field min 1
field max 1
attr interpolationmode  none
attr source  count(arrival)
attr title  "arrival perc, histogram"
bin	-INF	0
bin	0	0
bin	1	1
bin	2	0
statistic RandomGeometricGraph.rgnv[37] 	arrivalTime:histogram
field count 1
field mean 121.119
field stddev nan
field sum 121.119
field sqrsum 14669.812161
field min 121.119
field max 121.119
attr interpolationmode  none
attr source  arrivalTime
attr title  "arrival time, histogram"
bin	-INF	0
bin	120.619	0
bin	120.65233333333	0
bin	120.68566666667	0
bin	120.719	0
bin	120.75233333333	0
bin	120.78566666667	0
bin	120.819	0
bin	120.85233333333	0
bin	120.88566666667	0
bin	120.919	0
bin	120.95233333333	0
bin	120.98566666667	0
bin	121.019	0
bin	121.05233333333	0
bin	121.08566666667	0
bin	121.119	1
bin	121.15233333333	0
bin	121.18566666667	0
bin	121.219	0
bin	121.25233333333	0
bin	121.28566666667	0
bin	121.319	0
bin	121.35233333333	0
bin	121.38566666667	0
bin	121.419	0
bin	121.45233333333	0
bin	121.48566666667	0
bin	121.519	0
bin	121.55233333333	0
bin	121.58566666667	0
bin	121.619	0
statistic RandomGeometricGraph.rgnv[37] 	arrivalPerc:histogram
field count 1
field mean 1
field stddev nan
field sum 1
field sqrsum 1
field min 1
field max 1
attr interpolationmode  none
attr source  count(arrival)
attr title  "arrival perc, histogram"
bin	-INF	0
bin	0	0
bin	1	1
bin	2	0
statistic RandomGeometricGraph.rgnv[38] 	arrivalTime:histogram
field count 1
field mean 329.056
field stddev nan
field sum 329.056
field sqrsum 108277.851136
field min 329.056
field max 329.056
attr interpolationmode  none
attr source  arrivalTime
attr title  "arrival time, histogram"
bin	-INF	0
bin	328.556	0
bin	328.58933333333	0
bin	328.62266666667	0
bin	328.656	0
bin	328.68933333333	0
bin	328.72266666667	0
bin	328.756	0
bin	328.78933333333	0
bin	328.82266666667	0
bin	328.856	0
bin	328.88933333333	0
bin	328.92266666667	0
bin	328.956	0
bin	328.98933333333	0
bin	329.02266666667	0
bin	329.056	1
bin	329.08933333333	0
bin	329.12266666667	0
bin	329.156	0
bin	329.18933333333	0
bin	329.22266666667	0
bin	329.256	0
bin	329.28933333333	0
bin	329.32266666667	0
bin	329.356	0
bin	329.38933333333	0
bin	329.42266666667	0
bin	329.456	0
bin	329.48933333333	0
bin	329.52266666667	0
bin	329.556	0
statistic RandomGeometricGraph.rgnv[38] 	arrivalPerc:histogram
field count 1
field mean 1
field stddev nan
field sum 1
field sqrsum 1
field min 1
field max 1
attr interpolationmode  none
attr source  count(arrival)
attr title  "arrival perc, histogram"
bin	-INF	0
bin	0	0
bin	1	1
bin	2	0
statistic RandomGeometricGraph.rgnv[39] 	arrivalTime:histogram
field count 1
field mean 170.053
field stddev nan
field sum 170.053
field sqrsum 28918.022809
field min 170.053
field max 170.053
attr interpolationmode  none
attr source  arrivalTime
attr title  "arrival time, histogram"
bin	-INF	0
bin	169.553	0
bin	169.58633333333	0
bin	169.61966666667	0
bin	169.653	0
bin	169.68633333333	0
bin	169.71966666667	0
bin	169.753	0
bin	169.78633333333	0
bin	169.81966666667	0
bin	169.853	0
bin	169.88633333333	0
bin	169.91966666667	0
bin	169.953	0
bin	169.98633333333	0
bin	170.01966666667	0
bin	170.053	1
bin	170.08633333333	0
bin	170.11966666667	0
bin	170.153	0
bin	170.18633333333	0
bin	170.21966666667	0
bin	170.253	0
bin	170.28633333333	0
bin	170.31966666667	0
bin	170.353	0
bin	170.38633333333	0
bin	170.41966666667	0
bin	170.453	0
bin	170.48633333333	0
bin	170.51966666667	0
bin	170.553	0
statistic RandomGeometricGraph.rgnv[39] 	arrivalPerc:histogram
field count 1
field mean 1
field stddev nan
field sum 1
field sqrsum 1
field min 1
field max 1
attr interpolationmode  none
attr source  count(arrival)
attr title  "arrival perc, histogram"
bin	-INF	0
bin	0	0
bin	1	1
bin	2	0
statistic RandomGeometricGraph.rgnv[40] 	arrivalTime:histogram
field count 1
field mean 208.967
field stddev nan
field sum 208.967
field sqrsum 43667.207089
field min 208.967
field max 208.967
attr interpolationmode  none
attr source  arrivalTime
attr title  "arrival time, histogram"
bin	-INF	0
bin	208.467	0
bin	208.50033333333	0
bin	208.53366666667	0
bin	208.567	0
bin	208.60033333333	0
bin	208.63366666667	0
bin	208.667	0
bin	208.70033333333	0
bin	208.73366666667	0
bin	208.767	0
bin	208.80033333333	0
bin	208.83366666667	0
bin	208.867	0
bin	208.90033333333	0
bin	208.93366666667	0
bin	208.967	1
bin	209.00033333333	0
bin	209.03366666667	0
bin	209.067	0
bin	209.10033333333	0
bin	209.13366666667	0
bin	209.167	0
bin	209.20033333333	0
bin	209.23366666667	0
bin	209.267	0
bin	209.30033333333	0
bin	209.33366666667	0
bin	209.367	0
bin	209.40033333333	0
bin	209.43366666667	0
bin	209.467	0
statistic RandomGeometricGraph.rgnv[40] 	arrivalPerc:histogram
field count 1
field mean 1
field stddev nan
field sum 1
field sqrsum 1
field min 1
field max 1
attr interpolationmode  none
attr source  count(arrival)
attr title  "arrival perc, histogram"
bin	-INF	0
bin	0	0
bin	1	1
bin	2	0
statistic RandomGeometricGraph.rgnv[41] 	arrivalTime:histogram
field count 1
field mean 170.043
field stddev nan
field sum 170.043
field sqrsum 28914.621849
field min 170.043
field max 170.043
attr interpolationmode  none
attr source  arrivalTime
attr title  "arrival time, histogram"
bin	-INF	0
bin	169.543	0
bin	169.57633333333	0
bin	169.60966666667	0
bin	169.643	0
bin	169.67633333333	0
bin	169.70966666667	0
bin	169.743	0
bin	169.77633333333	0
bin	169.80966666667	0
bin	169.843	0
bin	169.87633333333	0
bin	169.90966666667	0
bin	169.943	0
bin	169.97633333333	0
bin	170.00966666667	0
bin	170.043	1
bin	170.07633333333	0
bin	170.10966666667	0
bin	170.143	0
bin	170.17633333333	0
bin	170.20966666667	0
bin	170.243	0
bin	170.27633333333	0
bin	170.30966666667	0
bin	170.343	0
bin	170.37633333333	0
bin	170.40966666667	0
bin	170.443	0
bin	170.47633333333	0
bin	170.50966666667	0
bin	170.543	0
statistic RandomGeometricGraph.rgnv[41] 	arrivalPerc:histogram
field count 1
field mean 1
field stddev nan
field sum 1
field sqrsum 1
field min 1
field max 1
attr interpolationmode  none
attr source  count(arrival)
attr title  "arrival perc, histogram"
bin	-INF	0
bin	0	0
bin	1	1
bin	2	0
statistic RandomGeometricGraph.rgnv[42] 	arrivalTime:histogram
field count 1
field mean 103.878
field stddev nan
field sum 103.878
field sqrsum 10790.638884
field min 103.878
field max 103.878
attr interpolationmode  none
attr source  arrivalTime
attr title  "arrival time, histogram"
bin	-INF	0
bin	103.378	0
bin	103.41133333333	0
bin	103.44466666667	0
bin	103.478	0
bin	103.51133333333	0
bin	103.54466666667	0
bin	103.578	0
bin	103.61133333333	0
bin	103.64466666667	0
bin	103.678	0
bin	103.71133333333	0
bin	103.74466666667	0
bin	103.778	0
bin	103.81133333333	0
bin	103.84466666667	0
bin	103.878	1
bin	103.91133333333	0
bin	103.94466666667	0
bin	103.978	0
bin	104.01133333333	0
bin	104.04466666667	0
bin	104.078	0
bin	104.11133333333	0
bin	104.14466666667	0
bin	104.178	0
bin	104.21133333333	0
bin	104.24466666667	0
bin	104.278	0
bin	104.31133333333	0
bin	104.34466666667	0
bin	104.378	0
statistic RandomGeometricGraph.rgnv[42] 	arrivalPerc:histogram
field count 1
field mean 1
field stddev nan
field sum 1
field sqrsum 1
field min 1
field max 1
attr interpolationmode  none
attr source  count(arrival)
attr title  "arrival perc, histogram"
bin	-INF	0
bin	0	0
bin	1	1
bin	2	0
statistic RandomGeometricGraph.rgnv[43] 	arrivalTime:histogram
field count 1
field mean 206.746
field stddev nan
field sum 206.746
field sqrsum 42743.908516
field min 206.746
field max 206.746
attr interpolationmode  none
attr source  arrivalTime
attr title  "arrival time, histogram"
bin	-INF	0
bin	206.246	0
bin	206.27933333333	0
bin	206.31266666667	0
bin	206.346	0
bin	206.37933333333	0
bin	206.41266666667	0
bin	206.446	0
bin	206.47933333333	0
bin	206.51266666667	0
bin	206.546	0
bin	206.57933333333	0
bin	206.61266666667	0
bin	206.646	0
bin	206.67933333333	0
bin	206.71266666667	0
bin	206.746	1
bin	206.77933333333	0
bin	206.81266666667	0
bin	206.846	0
bin	206.87933333333	0
bin	206.91266666667	0
bin	206.946	0
bin	206.97933333333	0
bin	207.01266666667	0
bin	207.046	0
bin	207.07933333333	0
bin	207.11266666667	0
bin	207.146	0
bin	207.17933333333	0
bin	207.21266666667	0
bin	207.246	0
statistic RandomGeometricGraph.rgnv[43] 	arrivalPerc:histogram
field count 1
field mean 1
field stddev nan
field sum 1
field sqrsum 1
field min 1
field max 1
attr interpolationmode  none
attr source  count(arrival)
attr title  "arrival perc, histogram"
bin	-INF	0
bin	0	0
bin	1	1
bin	2	0
statistic RandomGeometricGraph.rgnv[44] 	arrivalTime:histogram
field count 1
field mean 196.736
field stddev nan
field sum 196.736
field sqrsum 38705.053696
field min 196.736
field max 196.736
attr interpolationmode  none
attr source  arrivalTime
attr title  "arrival time, histogram"
bin	-INF	0
bin	196.236	0
bin	196.26933333333	0
bin	196.30266666667	0
bin	196.336	0
bin	196.36933333333	0
bin	196.40266666667	0
bin	196.436	0
bin	196.46933333333	0
bin	196.50266666667	0
bin	196.536	0
bin	196.56933333333	0
bin	196.60266666667	0
bin	196.636	0
bin	196.66933333333	0
bin	196.70266666667	0
bin	196.736	1
bin	196.76933333333	0
bin	196.80266666667	0
bin	196.836	0
bin	196.86933333333	0
bin	196.90266666667	0
bin	196.936	0
bin	196.96933333333	0
bin	197.00266666667	0
bin	197.036	0
bin	197.06933333333	0
bin	197.10266666667	0
bin	197.136	0
bin	197.16933333333	0
bin	197.20266666667	0
bin	197.236	0
statistic RandomGeometricGraph.rgnv[44] 	arrivalPerc:histogram
field count 1
field mean 1
field stddev nan
field sum 1
field sqrsum 1
field min 1
field max 1
attr interpolationmode  none
attr source  count(arrival)
attr title  "arrival perc, histogram"
bin	-INF	0
bin	0	0
bin	1	1
bin	2	0
statistic RandomGeometricGraph.rgnv[45] 	arrivalTime:histogram
field count 1
field mean 86.637
field stddev nan
field sum 86.637
field sqrsum 7505.969769
field min 86.637
field max 86.637
attr interpolationmode  none
attr source  arrivalTime
attr title  "arrival time, histogram"
bin	-INF	0
bin	86.137	0
bin	86.170333333333	0
bin	86.203666666667	0
bin	86.237	0
bin	86.270333333333	0
bin	86.303666666667	0
bin	86.337	0
bin	86.370333333333	0
bin	86.403666666667	0
bin	86.437	0
bin	86.470333333333	0
bin	86.503666666667	0
bin	86.537	0
bin	86.570333333333	0
bin	86.603666666667	0
bin	86.637	1
bin	86.670333333333	0
bin	86.703666666667	0
bin	86.737	0
bin	86.770333333333	0
bin	86.803666666667	0
bin	86.837	0
bin	86.870333333333	0
bin	86.903666666667	0
bin	86.937	0
bin	86.970333333333	0
bin	87.003666666667	0
bin	87.037	0
bin	87.070333333333	0
bin	87.103666666667	0
bin	87.137	0
statistic RandomGeometricGraph.rgnv[45] 	arrivalPerc:histogram
field count 1
field mean 1
field stddev nan
field sum 1
field sqrsum 1
field min 1
field max 1
attr interpolationmode  none
attr source  count(arrival)
attr title  "arrival perc, histogram"
bin	-INF	0
bin	0	0
bin	1	1
bin	2	0
statistic RandomGeometricGraph.rgnv[46] 	arrivalTime:histogram
field count 1
field mean 196.716
field stddev nan
field sum 196.716
field sqrsum 38697.184656
field min 196.716
field max 196.716
attr interpolationmode  none
attr source  arrivalTime
attr title  "arrival time, histogram"
bin	-INF	0
bin	196.216	0
bin	196.24933333333	0
bin	196.28266666667	0
bin	196.316	0
bin	196.34933333333	0
bin	196.38266666667	0
bin	196.416	0
bin	196.44933333333	0
bin	196.48266666667	0
bin	196.516	0
bin	196.54933333333	0
bin	196.58266666667	0
bin	196.616	0
bin	196.64933333333	0
bin	196.68266666667	0
bin	196.716	1
bin	196.74933333333	0
bin	196.78266666667	0
bin	196.816	0
bin	196.84933333333	0
bin	196.88266666667	0
bin	196.916	0
bin	196.94933333333	0
bin	196.98266666667	0
bin	197.016	0
bin	197.04933333333	0
bin	197.08266666667	0
bin	197.116	0
bin	197.14933333333	0
bin	197.18266666667	0
bin	197.216	0
statistic RandomGeometricGraph.rgnv[46] 	arrivalPerc:histogram
field count 1
field mean 1
field stddev nan
field sum 1
field sqrsum 1
field min 1
field max 1
attr interpolationmode  none
attr source  count(arrival)
attr title  "arrival perc, histogram"
bin	-INF	0
bin	0	0
bin	1	1
bin	2	0
statistic RandomGeometricGraph.rgnv[47] 	arrivalTime:histogram
field count 1
field mean 111.109
field stddev nan
field sum 111.109
field sqrsum 12345.209881
field min 111.109
field max 111.109
attr interpolationmode  none
attr source  arrivalTime
attr title  "arrival time, histogram"
bin	-INF	0
bin	110.609	0
bin	110.64233333333	0
bin	110.67566666667	0
bin	110.709	0
bin	110.74233333333	0
bin	110.77566666667	0
bin	110.809	0
bin	110.84233333333	0
bin	110.87566666667	0
bin	110.909	0
bin	110.94233333333	0
bin	110.97566666667	0
bin	111.009	0
bin	111.04233333333	0
bin	111.07566666667	0
bin	111.109	1
bin	111.14233333333	0
bin	111.17566666667	0
bin	111.209	0
bin	111.24233333333	0
bin	111.27566666667	0
bin	111.309	0
bin	111.34233333333	0
bin	111.37566666667	0
bin	111.409	0
bin	111.44233333333	0
bin	111.47566666667	0
bin	111.509	0
bin	111.54233333333	0
bin	111.57566666667	0
bin	111.609	0
statistic RandomGeometricGraph.rgnv[47] 	arrivalPerc:histogram
field count 1
field mean 1
field stddev nan
field sum 1
field sqrsum 1
field min 1
field max 1
attr interpolationmode  none
attr source  count(arrival)
attr title  "arrival perc, histogram"
bin	-INF	0
bin	0	0
bin	1	1
bin	2	0
statistic RandomGeometricGraph.rgnv[48] 	arrivalTime:histogram
field count 1
field mean 334.066
field stddev nan
field sum 334.066
field sqrsum 111600.092356
field min 334.066
field max 334.066
attr interpolationmode  none
attr source  arrivalTime
attr title  "arrival time, histogram"
bin	-INF	0
bin	333.566	0
bin	333.59933333333	0
bin	333.63266666667	0
bin	333.666	0
bin	333.69933333333	0
bin	333.73266666667	0
bin	333.766	0
bin	333.79933333333	0
bin	333.83266666667	0
bin	333.866	0
bin	333.89933333333	0
bin	333.93266666667	0
bin	333.966	0
bin	333.99933333333	0
bin	334.03266666667	0
bin	334.066	1
bin	334.09933333333	0
bin	334.13266666667	0
bin	334.166	0
bin	334.19933333333	0
bin	334.23266666667	0
bin	334.266	0
bin	334.29933333333	0
bin	334.33266666667	0
bin	334.366	0
bin	334.39933333333	0
bin	334.43266666667	0
bin	334.466	0
bin	334.49933333333	0
bin	334.53266666667	0
bin	334.566	0
statistic RandomGeometricGraph.rgnv[48] 	arrivalPerc:histogram
field count 1
field mean 1
field stddev nan
field sum 1
field sqrsum 1
field min 1
field max 1
attr interpolationmode  none
attr source  count(arrival)
attr title  "arrival perc, histogram"
bin	-INF	0
bin	0	0
bin	1	1
bin	2	0
statistic RandomGeometricGraph.rgnv[49] 	arrivalTime:histogram
field count 1
field mean 37.703
field stddev nan
field sum 37.703
field sqrsum 1421.516209
field min 37.703
field max 37.703
attr interpolationmode  none
attr source  arrivalTime
attr title  "arrival time, histogram"
bin	-INF	0
bin	37.203	0
bin	37.236333333333	0
bin	37.269666666667	0
bin	37.303	0
bin	37.336333333333	0
bin	37.369666666667	0
bin	37.403	0
bin	37.436333333333	0
bin	37.469666666667	0
bin	37.503	0
bin	37.536333333333	0
bin	37.569666666667	0
bin	37.603	0
bin	37.636333333333	0
bin	37.669666666667	0
bin	37.703	1
bin	37.736333333333	0
bin	37.769666666667	0
bin	37.803	0
bin	37.836333333333	0
bin	37.869666666667	0
bin	37.903	0
bin	37.936333333333	0
bin	37.969666666667	0
bin	38.003	0
bin	38.036333333333	0
bin	38.069666666667	0
bin	38.103	0
bin	38.136333333333	0
bin	38.169666666667	0
bin	38.203	0
statistic RandomGeometricGraph.rgnv[49] 	arrivalPerc:histogram
field count 1
field mean 1
field stddev nan
field sum 1
field sqrsum 1
field min 1
field max 1
attr interpolationmode  none
attr source  count(arrival)
attr title  "arrival perc, histogram"
bin	-INF	0
bin	0	0
bin	1	1
bin	2	0
statistic RandomGeometricGraph.rgnv[50] 	arrivalTime:histogram
field count 1
field mean 184.505
field stddev nan
field sum 184.505
field sqrsum 34042.095025
field min 184.505
field max 184.505
attr interpolationmode  none
attr source  arrivalTime
attr title  "arrival time, histogram"
bin	-INF	0
bin	184.005	0
bin	184.03833333333	0
bin	184.07166666667	0
bin	184.105	0
bin	184.13833333333	0
bin	184.17166666667	0
bin	184.205	0
bin	184.23833333333	0
bin	184.27166666667	0
bin	184.305	0
bin	184.33833333333	0
bin	184.37166666667	0
bin	184.405	0
bin	184.43833333333	0
bin	184.47166666667	0
bin	184.505	1
bin	184.53833333333	0
bin	184.57166666667	0
bin	184.605	0
bin	184.63833333333	0
bin	184.67166666667	0
bin	184.705	0
bin	184.73833333333	0
bin	184.77166666667	0
bin	184.805	0
bin	184.83833333333	0
bin	184.87166666667	0
bin	184.905	0
bin	184.93833333333	0
bin	184.97166666667	0
bin	185.005	0
statistic RandomGeometricGraph.rgnv[50] 	arrivalPerc:histogram
field count 1
field mean 1
field stddev nan
field sum 1
field sqrsum 1
field min 1
field max 1
attr interpolationmode  none
attr source  count(arrival)
attr title  "arrival perc, histogram"
bin	-INF	0
bin	0	0
bin	1	1
bin	2	0
statistic RandomGeometricGraph.rgnv[51] 	arrivalTime:histogram
field count 1
field mean 121.109
field stddev nan
field sum 121.109
field sqrsum 14667.389881
field min 121.109
field max 121.109
attr interpolationmode  none
attr source  arrivalTime
attr title  "arrival time, histogram"
bin	-INF	0
bin	120.609	0
bin	120.64233333333	0
bin	120.67566666667	0
bin	120.709	0
bin	120.74233333333	0
bin	120.77566666667	0
bin	120.809	0
bin	120.84233333333	0
bin	120.87566666667	0
bin	120.909	0
bin	120.94233333333	0
bin	120.97566666667	0
bin	121.009	0
bin	121.04233333333	0
bin	121.07566666667	0
bin	121.109	1
bin	121.14233333333	0
bin	121.17566666667	0
bin	121.209	0
bin	121.24233333333	0
bin	121.27566666667	0
bin	121.309	0
bin	121.34233333333	0
bin	121.37566666667	0
bin	121.409	0
bin	121.44233333333	0
bin	121.47566666667	0
bin	121.509	0
bin	121.54233333333	0
bin	121.57566666667	0
bin	121.609	0
statistic RandomGeometricGraph.rgnv[51] 	arrivalPerc:histogram
field count 1
field mean 1
field stddev nan
field sum 1
field sqrsum 1
field min 1
field max 1
attr interpolationmode  none
attr source  count(arrival)
attr title  "arrival perc, histogram"
bin	-INF	0
bin	0	0
bin	1	1
bin	2	0
statistic RandomGeometricGraph.rgnv[52] 	arrivalTime:histogram
field count 1
field mean 135.561
field stddev nan
field sum 135.561
field sqrsum 18376.784721
field min 135.561
field max 135.561
attr interpolationmode  none
attr source  arrivalTime
attr title  "arrival time, histogram"
bin	-INF	0
bin	135.061	0
bin	135.09433333333	0
bin	135.12766666667	0
bin	135.161	0
bin	135.19433333333	0
bin	135.22766666667	0
bin	135.261	0
bin	135.29433333333	0
bin	135.32766666667	0
bin	135.361	0
bin	135.39433333333	0
bin	135.42766666667	0
bin	135.461	0
bin	135.49433333333	0
bin	135.52766666667	0
bin	135.561	1
bin	135.59433333333	0
bin	135.62766666667	0
bin	135.661	0
bin	135.69433333333	0
bin	135.72766666667	0
bin	135.761	0
bin	135.79433333333	0
bin	135.82766666667	0
bin	135.861	0
bin	135.89433333333	0
bin	135.92766666667	0
bin	135.961	0
bin	135.99433333333	0
bin	136.02766666667	0
bin	136.061	0
statistic RandomGeometricGraph.rgnv[52] 	arrivalPerc:histogram
field count 1
field mean 1
field stddev nan
field sum 1
field sqrsum 1
field min 1
field max 1
attr interpolationmode  none
attr source  count(arrival)
attr title  "arrival perc, histogram"
bin	-INF	0
bin	0	0
bin	1	1
bin	2	0
statistic RandomGeometricGraph.rgnv[53] 	arrivalTime:histogram
field count 1
field mean 121.119
field stddev nan
field sum 121.119
field sqrsum 14669.812161
field min 121.119
field max 121.119
attr interpolationmode  none
attr source  arrivalTime
attr title  "arrival time, histogram"
bin	-INF	0
bin	120.619	0
bin	120.65233333333	0
bin	120.68566666667	0
bin	120.719	0
bin	120.75233333333	0
bin	120.78566666667	0
bin	120.819	0
bin	120.85233333333	0
bin	120.88566666667	0
bin	120.919	0
bin	120.95233333333	0
bin	120.98566666667	0
bin	121.019	0
bin	121.05233333333	0
bin	121.08566666667	0
bin	121.119	1
bin	121.15233333333	0
bin	121.18566666667	0
bin	121.219	0
bin	121.25233333333	0
bin	121.28566666667	0
bin	121.319	0
bin	121.35233333333	0
bin	121.38566666667	0
bin	121.419	0
bin	121.45233333333	0
bin	121.48566666667	0
bin	121.519	0
bin	121.55233333333	0
bin	121.58566666667	0
bin	121.619	0
statistic RandomGeometricGraph.rgnv[53] 	arrivalPerc:histogram
field count 1
field mean 1
field stddev nan
field sum 1
field sqrsum 1
field min 1
field max 1
attr interpolationmode  none
attr source  count(arrival)
attr title  "arrival perc, histogram"
bin	-INF	0
bin	0	0
bin	1	1
bin	2	0
statistic RandomGeometricGraph.rgnv[54] 	arrivalTime:histogram
field count 1
field mean 157.802
field stddev nan
field sum 157.802
field sqrsum 24901.471204
field min 157.802
field max 157.802
attr interpolationmode  none
attr source  arrivalTime
attr title  "arrival time, histogram"
bin	-INF	0
bin	157.302	0
bin	157.33533333333	0
bin	157.36866666667	0
bin	157.402	0
bin	157.43533333333	0
bin	157.46866666667	0
bin	157.502	0
bin	157.53533333333	0
bin	157.56866666667	0
bin	157.602	0
bin	157.63533333333	0
bin	157.66866666667	0
bin	157.702	0
bin	157.73533333333	0
bin	157.76866666667	0
bin	157.802	1
bin	157.83533333333	0
bin	157.86866666667	0
bin	157.902	0
bin	157.93533333333	0
bin	157.96866666667	0
bin	158.002	0
bin	158.03533333333	0
bin	158.06866666667	0
bin	158.102	0
bin	158.13533333333	0
bin	158.16866666667	0
bin	158.202	0
bin	158.23533333333	0
bin	158.26866666667	0
bin	158.302	0
statistic RandomGeometricGraph.rgnv[54] 	arrivalPerc:histogram
field count 1
field mean 1
field stddev nan
field sum 1
field sqrsum 1
field min 1
field max 1
attr interpolationmode  none
attr source  count(arrival)
attr title  "arrival perc, histogram"
bin	-INF	0
bin	0	0
bin	1	1
bin	2	0
statistic RandomGeometricGraph.rgnv[55] 	arrivalTime:histogram
field count 0
field mean nan
field stddev nan
field sum 0
field sqrsum 0
field min nan
field max nan
attr interpolationmode  none
attr source  arrivalTime
attr title  "arrival time, histogram"
bin	-INF	0
bin	-0.5	0
bin	-0.46666666666667	0
bin	-0.43333333333333	0
bin	-0.4	0
bin	-0.36666666666667	0
bin	-0.33333333333333	0
bin	-0.3	0
bin	-0.26666666666667	0
bin	-0.23333333333333	0
bin	-0.2	0
bin	-0.16666666666667	0
bin	-0.13333333333333	0
bin	-0.1	0
bin	-0.066666666666667	0
bin	-0.033333333333333	0
bin	0	0
bin	0.033333333333333	0
bin	0.066666666666667	0
bin	0.1	0
bin	0.13333333333333	0
bin	0.16666666666667	0
bin	0.2	0
bin	0.23333333333333	0
bin	0.26666666666667	0
bin	0.3	0
bin	0.33333333333333	0
bin	0.36666666666667	0
bin	0.4	0
bin	0.43333333333333	0
bin	0.46666666666667	0
bin	0.5	0
statistic RandomGeometricGraph.rgnv[55] 	arrivalPerc:histogram
field count 0
field mean nan
field stddev nan
field sum 0
field sqrsum 0
field min nan
field max nan
attr interpolationmode  none
attr source  count(arrival)
attr title  "arrival perc, histogram"
bin	-INF	0
bin	-0.5	0
bin	-0.46666666666667	0
bin	-0.43333333333333	0
bin	-0.4	0
bin	-0.36666666666667	0
bin	-0.33333333333333	0
bin	-0.3	0
bin	-0.26666666666667	0
bin	-0.23333333333333	0
bin	-0.2	0
bin	-0.16666666666667	0
bin	-0.13333333333333	0
bin	-0.1	0
bin	-0.066666666666667	0
bin	-0.033333333333333	0
bin	0	0
bin	0.033333333333333	0
bin	0.066666666666667	0
bin	0.1	0
bin	0.13333333333333	0
bin	0.16666666666667	0
bin	0.2	0
bin	0.23333333333333	0
bin	0.26666666666667	0
bin	0.3	0
bin	0.33333333333333	0
bin	0.36666666666667	0
bin	0.4	0
bin	0.43333333333333	0
bin	0.46666666666667	0
bin	0.5	0
statistic RandomGeometricGraph.rgnv[56] 	arrivalTime:histogram
field count 1
field mean 297.373
field stddev nan
field sum 297.373
field sqrsum 88430.701129
field min 297.373
field max 297.373
attr interpolationmode  none
attr source  arrivalTime
attr title  "arrival time, histogram"
bin	-INF	0
bin	296.873	0
bin	296.90633333333	0
bin	296.93966666667	0
bin	296.973	0
bin	297.00633333333	0
bin	297.03966666667	0
bin	297.073	0
bin	297.10633333333	0
bin	297.13966666667	0
bin	297.173	0
bin	297.20633333333	0
bin	297.23966666667	0
bin	297.273	0
bin	297.30633333333	0
bin	297.33966666667	0
bin	297.373	1
bin	297.40633333333	0
bin	297.43966666667	0
bin	297.473	0
bin	297.50633333333	0
bin	297.53966666667	0
bin	297.573	0
bin	297.60633333333	0
bin	297.63966666667	0
bin	297.673	0
bin	297.70633333333	0
bin	297.73966666667	0
bin	297.773	0
bin	297.80633333333	0
bin	297.83966666667	0
bin	297.873	0
statistic RandomGeometricGraph.rgnv[56] 	arrivalPerc:histogram
field count 1
field mean 1
field stddev nan
field sum 1
field sqrsum 1
field min 1
field max 1
attr interpolationmode  none
attr source  count(arrival)
attr title  "arrival perc, histogram"
bin	-INF	0
bin	0	0
bin	1	1
bin	2	0
statistic RandomGeometricGraph.rgnv[57] 	arrivalTime:histogram
field count 1
field mean 91.627
field stddev nan
field sum 91.627
field sqrsum 8395.507129
field min 91.627
field max 91.627
attr interpolationmode  none
attr source  arrivalTime
attr title  "arrival time, histogram"
bin	-INF	0
bin	91.127	0
bin	91.160333333333	0
bin	91.193666666667	0
bin	91.227	0
bin	91.260333333333	0
bin	91.293666666667	0
bin	91.327	0
bin	91.360333333333	0
bin	91.393666666667	0
bin	91.427	0
bin	91.460333333333	0
bin	91.493666666667	0
bin	91.527	0
bin	91.560333333333	0
bin	91.593666666667	0
bin	91.627	1
bin	91.660333333333	0
bin	91.693666666667	0
bin	91.727	0
bin	91.760333333333	0
bin	91.793666666667	0
bin	91.827	0
bin	91.860333333333	0
bin	91.893666666667	0
bin	91.927	0
bin	91.960333333333	0
bin	91.993666666667	0
bin	92.027	0
bin	92.060333333333	0
bin	92.093666666667	0
bin	92.127	0
statistic RandomGeometricGraph.rgnv[57] 	arrivalPerc:histogram
field count 1
field mean 1
field stddev nan
field sum 1
field sqrsum 1
field min 1
field max 1
attr interpolationmode  none
attr source  count(arrival)
attr title  "arrival perc, histogram"
bin	-INF	0
bin	0	0
bin	1	1
bin	2	0
statistic RandomGeometricGraph.rgnv[58] 	arrivalTime:histogram
field count 1
field mean 280.132
field stddev nan
field sum 280.132
field sqrsum 78473.937424
field min 280.132
field max 280.132
attr interpolationmode  none
attr source  arrivalTime
attr title  "arrival time, histogram"
bin	-INF	0
bin	279.632	0
bin	279.66533333333	0
bin	279.69866666667	0
bin	279.732	0
bin	279.76533333333	0
bin	279.79866666667	0
bin	279.832	0
bin	279.86533333333	0
bin	279.89866666667	0
bin	279.932	0
bin	279.96533333333	0
bin	279.99866666667	0
bin	280.032	0
bin	280.06533333333	0
bin	280.09866666667	0
bin	280.132	1
bin	280.16533333333	0
bin	280.19866666667	0
bin	280.232	0
bin	280.26533333333	0
bin	280.29866666667	0
bin	280.332	0
bin	280.36533333333	0
bin	280.39866666667	0
bin	280.432	0
bin	280.46533333333	0
bin	280.49866666667	0
bin	280.532	0
bin	280.56533333333	0
bin	280.59866666667	0
bin	280.632	0
statistic RandomGeometricGraph.rgnv[58] 	arrivalPerc:histogram
field count 1
field mean 1
field stddev nan
field sum 1
field sqrsum 1
field min 1
field max 1
attr interpolationmode  none
attr source  count(arrival)
attr title  "arrival perc, histogram"
bin	-INF	0
bin	0	0
bin	1	1
bin	2	0
statistic RandomGeometricGraph.rgnv[59] 	arrivalTime:histogram
field count 1
field mean 128.34
field stddev nan
field sum 128.34
field sqrsum 16471.1556
field min 128.34
field max 128.34
attr interpolationmode  none
attr source  arrivalTime
attr title  "arrival time, histogram"
bin	-INF	0
bin	127.84	0
bin	127.87333333333	0
bin	127.90666666667	0
bin	127.94	0
bin	127.97333333333	0
bin	128.00666666667	0
bin	128.04	0
bin	128.07333333333	0
bin	128.10666666667	0
bin	128.14	0
bin	128.17333333333	0
bin	128.20666666667	0
bin	128.24	0
bin	128.27333333333	0
bin	128.30666666667	0
bin	128.34	1
bin	128.37333333333	0
bin	128.40666666667	0
bin	128.44	0
bin	128.47333333333	0
bin	128.50666666667	0
bin	128.54	0
bin	128.57333333333	0
bin	128.60666666667	0
bin	128.64	0
bin	128.67333333333	0
bin	128.70666666667	0
bin	128.74	0
bin	128.77333333333	0
bin	128.80666666667	0
bin	128.84	0
statistic RandomGeometricGraph.rgnv[59] 	arrivalPerc:histogram
field count 1
field mean 1
field stddev nan
field sum 1
field sqrsum 1
field min 1
field max 1
attr interpolationmode  none
attr source  count(arrival)
attr title  "arrival perc, histogram"
bin	-INF	0
bin	0	0
bin	1	1
bin	2	0
statistic RandomGeometricGraph.rgnv[60] 	arrivalTime:histogram
field count 0
field mean nan
field stddev nan
field sum 0
field sqrsum 0
field min nan
field max nan
attr interpolationmode  none
attr source  arrivalTime
attr title  "arrival time, histogram"
bin	-INF	0
bin	-0.5	0
bin	-0.46666666666667	0
bin	-0.43333333333333	0
bin	-0.4	0
bin	-0.36666666666667	0
bin	-0.33333333333333	0
bin	-0.3	0
bin	-0.26666666666667	0
bin	-0.23333333333333	0
bin	-0.2	0
bin	-0.16666666666667	0
bin	-0.13333333333333	0
bin	-0.1	0
bin	-0.066666666666667	0
bin	-0.033333333333333	0
bin	0	0
bin	0.033333333333333	0
bin	0.066666666666667	0
bin	0.1	0
bin	0.13333333333333	0
bin	0.16666666666667	0
bin	0.2	0
bin	0.23333333333333	0
bin	0.26666666666667	0
bin	0.3	0
bin	0.33333333333333	0
bin	0.36666666666667	0
bin	0.4	0
bin	0.43333333333333	0
bin	0.46666666666667	0
bin	0.5	0
statistic RandomGeometricGraph.rgnv[60] 	arrivalPerc:histogram
field count 0
field mean nan
field stddev nan
field sum 0
field sqrsum 0
field min nan
field max nan
attr interpolationmode  none
attr source  count(arrival)
attr title  "arrival perc, histogram"
bin	-INF	0
bin	-0.5	0
bin	-0.46666666666667	0
bin	-0.43333333333333	0
bin	-0.4	0
bin	-0.36666666666667	0
bin	-0.33333333333333	0
bin	-0.3	0
bin	-0.26666666666667	0
bin	-0.23333333333333	0
bin	-0.2	0
bin	-0.16666666666667	0
bin	-0.13333333333333	0
bin	-0.1	0
bin	-0.066666666666667	0
bin	-0.033333333333333	0
bin	0	0
bin	0.033333333333333	0
bin	0.066666666666667	0
bin	0.1	0
bin	0.13333333333333	0
bin	0.16666666666667	0
bin	0.2	0
bin	0.23333333333333	0
bin	0.26666666666667	0
bin	0.3	0
bin	0.33333333333333	0
bin	0.36666666666667	0
bin	0.4	0
bin	0.43333333333333	0
bin	0.46666666666667	0
bin	0.5	0
statistic RandomGeometricGraph.rgnv[61] 	arrivalTime:histogram
field count 1
field mean 86.637
field stddev nan
field sum 86.637
field sqrsum 7505.969769
field min 86.637
field max 86.637
attr interpolationmode  none
attr source  arrivalTime
attr title  "arrival time, histogram"
bin	-INF	0
bin	86.137	0
bin	86.170333333333	0
bin	86.203666666667	0
bin	86.237	0
bin	86.270333333333	0
bin	86.303666666667	0
bin	86.337	0
bin	86.370333333333	0
bin	86.403666666667	0
bin	86.437	0
bin	86.470333333333	0
bin	86.503666666667	0
bin	86.537	0
bin	86.570333333333	0
bin	86.603666666667	0
bin	86.637	1
bin	86.670333333333	0
bin	86.703666666667	0
bin	86.737	0
bin	86.770333333333	0
bin	86.803666666667	0
bin	86.837	0
bin	86.870333333333	0
bin	86.903666666667	0
bin	86.937	0
bin	86.970333333333	0
bin	87.003666666667	0
bin	87.037	0
bin	87.070333333333	0
bin	87.103666666667	0
bin	87.137	0
statistic RandomGeometricGraph.rgnv[61] 	arrivalPerc:histogram
field count 1
field mean 1
field stddev nan
field sum 1
field sqrsum 1
field min 1
field max 1
attr interpolationmode  none
attr source  count(arrival)
attr title  "arrival perc, histogram"
bin	-INF	0
bin	0	0
bin	1	1
bin	2	0
statistic RandomGeometricGraph.rgnv[62] 	arrivalTime:histogram
field count 1
field mean 79.396
field stddev nan
field sum 79.396
field sqrsum 6303.724816
field min 79.396
field max 79.396
attr interpolationmode  none
attr source  arrivalTime
attr title  "arrival time, histogram"
bin	-INF	0
bin	78.896	0
bin	78.929333333333	0
bin	78.962666666667	0
bin	78.996	0
bin	79.029333333333	0
bin	79.062666666667	0
bin	79.096	0
bin	79.129333333333	0
bin	79.162666666667	0
bin	79.196	0
bin	79.229333333333	0
bin	79.262666666667	0
bin	79.296	0
bin	79.329333333333	0
bin	79.362666666667	0
bin	79.396	1
bin	79.429333333333	0
bin	79.462666666667	0
bin	79.496	0
bin	79.529333333333	0
bin	79.562666666667	0
bin	79.596	0
bin	79.629333333333	0
bin	79.662666666667	0
bin	79.696	0
bin	79.729333333333	0
bin	79.762666666667	0
bin	79.796	0
bin	79.829333333333	0
bin	79.862666666667	0
bin	79.896	0
statistic RandomGeometricGraph.rgnv[62] 	arrivalPerc:histogram
field count 1
field mean 1
field stddev nan
field sum 1
field sqrsum 1
field min 1
field max 1
attr interpolationmode  none
attr source  count(arrival)
attr title  "arrival perc, histogram"
bin	-INF	0
bin	0	0
bin	1	1
bin	2	0
statistic RandomGeometricGraph.rgnv[63] 	arrivalTime:histogram
field count 1
field mean 299.594
field stddev nan
field sum 299.594
field sqrsum 89756.564836
field min 299.594
field max 299.594
attr interpolationmode  none
attr source  arrivalTime
attr title  "arrival time, histogram"
bin	-INF	0
bin	299.094	0
bin	299.12733333333	0
bin	299.16066666667	0
bin	299.194	0
bin	299.22733333333	0
bin	299.26066666667	0
bin	299.294	0
bin	299.32733333333	0
bin	299.36066666667	0
bin	299.394	0
bin	299.42733333333	0
bin	299.46066666667	0
bin	299.494	0
bin	299.52733333333	0
bin	299.56066666667	0
bin	299.594	1
bin	299.62733333333	0
bin	299.66066666667	0
bin	299.694	0
bin	299.72733333333	0
bin	299.76066666667	0
bin	299.794	0
bin	299.82733333333	0
bin	299.86066666667	0
bin	299.894	0
bin	299.92733333333	0
bin	299.96066666667	0
bin	299.994	0
bin	300.02733333333	0
bin	300.06066666667	0
bin	300.094	0
statistic RandomGeometricGraph.rgnv[63] 	arrivalPerc:histogram
field count 1
field mean 1
field stddev nan
field sum 1
field sqrsum 1
field min 1
field max 1
attr interpolationmode  none
attr source  count(arrival)
attr title  "arrival perc, histogram"
bin	-INF	0
bin	0	0
bin	1	1
bin	2	0
statistic RandomGeometricGraph.rgnv[64] 	arrivalTime:histogram
field count 1
[...]
bin	208.81366666667	0
bin	208.847	0
bin	208.88033333333	0
bin	208.91366666667	0
bin	208.947	1
bin	208.98033333333	0
bin	209.01366666667	0
bin	209.047	0
bin	209.08033333333	0
bin	209.11366666667	0
bin	209.147	0
bin	209.18033333333	0
bin	209.21366666667	0
bin	209.247	0
bin	209.28033333333	0
bin	209.31366666667	0
bin	209.347	0
bin	209.38033333333	0
bin	209.41366666667	0
bin	209.447	0
statistic RandomGeometricGraph.rgnv[183] 	arrivalPerc:histogram
field count 1
field mean 1
field stddev nan
field sum 1
field sqrsum 1
field min 1
field max 1
attr interpolationmode  none
attr source  count(arrival)
attr title  "arrival perc, histogram"
bin	-INF	0
bin	0	0
bin	1	1
bin	2	0
statistic RandomGeometricGraph.rgnv[184] 	arrivalTime:histogram
field count 1
field mean 152.802
field stddev nan
field sum 152.802
field sqrsum 23348.451204
field min 152.802
field max 152.802
attr interpolationmode  none
attr source  arrivalTime
attr title  "arrival time, histogram"
bin	-INF	0
bin	152.302	0
bin	152.33533333333	0
bin	152.36866666667	0
bin	152.402	0
bin	152.43533333333	0
bin	152.46866666667	0
bin	152.502	0
bin	152.53533333333	0
bin	152.56866666667	0
bin	152.602	0
bin	152.63533333333	0
bin	152.66866666667	0
bin	152.702	0
bin	152.73533333333	0
bin	152.76866666667	0
bin	152.802	1
bin	152.83533333333	0
bin	152.86866666667	0
bin	152.902	0
bin	152.93533333333	0
bin	152.96866666667	0
bin	153.002	0
bin	153.03533333333	0
bin	153.06866666667	0
bin	153.102	0
bin	153.13533333333	0
bin	153.16866666667	0
bin	153.202	0
bin	153.23533333333	0
bin	153.26866666667	0
bin	153.302	0
statistic RandomGeometricGraph.rgnv[184] 	arrivalPerc:histogram
field count 1
field mean 1
field stddev nan
field sum 1
field sqrsum 1
field min 1
field max 1
attr interpolationmode  none
attr source  count(arrival)
attr title  "arrival perc, histogram"
bin	-INF	0
bin	0	0
bin	1	1
bin	2	0
statistic RandomGeometricGraph.rgnv[185] 	arrivalTime:histogram
field count 1
field mean 111.089
field stddev nan
field sum 111.089
field sqrsum 12340.765921
field min 111.089
field max 111.089
attr interpolationmode  none
attr source  arrivalTime
attr title  "arrival time, histogram"
bin	-INF	0
bin	110.589	0
bin	110.62233333333	0
bin	110.65566666667	0
bin	110.689	0
bin	110.72233333333	0
bin	110.75566666667	0
bin	110.789	0
bin	110.82233333333	0
bin	110.85566666667	0
bin	110.889	0
bin	110.92233333333	0
bin	110.95566666667	0
bin	110.989	0
bin	111.02233333333	0
bin	111.05566666667	0
bin	111.089	1
bin	111.12233333333	0
bin	111.15566666667	0
bin	111.189	0
bin	111.22233333333	0
bin	111.25566666667	0
bin	111.289	0
bin	111.32233333333	0
bin	111.35566666667	0
bin	111.389	0
bin	111.42233333333	0
bin	111.45566666667	0
bin	111.489	0
bin	111.52233333333	0
bin	111.55566666667	0
bin	111.589	0
statistic RandomGeometricGraph.rgnv[185] 	arrivalPerc:histogram
field count 1
field mean 1
field stddev nan
field sum 1
field sqrsum 1
field min 1
field max 1
attr interpolationmode  none
attr source  count(arrival)
attr title  "arrival perc, histogram"
bin	-INF	0
bin	0	0
bin	1	1
bin	2	0
statistic RandomGeometricGraph.rgnv[186] 	arrivalTime:histogram
field count 1
field mean 184.495
field stddev nan
field sum 184.495
field sqrsum 34038.405025
field min 184.495
field max 184.495
attr interpolationmode  none
attr source  arrivalTime
attr title  "arrival time, histogram"
bin	-INF	0
bin	183.995	0
bin	184.02833333333	0
bin	184.06166666667	0
bin	184.095	0
bin	184.12833333333	0
bin	184.16166666667	0
bin	184.195	0
bin	184.22833333333	0
bin	184.26166666667	0
bin	184.295	0
bin	184.32833333333	0
bin	184.36166666667	0
bin	184.395	0
bin	184.42833333333	0
bin	184.46166666667	0
bin	184.495	1
bin	184.52833333333	0
bin	184.56166666667	0
bin	184.595	0
bin	184.62833333333	0
bin	184.66166666667	0
bin	184.695	0
bin	184.72833333333	0
bin	184.76166666667	0
bin	184.795	0
bin	184.82833333333	0
bin	184.86166666667	0
bin	184.895	0
bin	184.92833333333	0
bin	184.96166666667	0
bin	184.995	0
statistic RandomGeometricGraph.rgnv[186] 	arrivalPerc:histogram
field count 1
field mean 1
field stddev nan
field sum 1
field sqrsum 1
field min 1
field max 1
attr interpolationmode  none
attr source  count(arrival)
attr title  "arrival perc, histogram"
bin	-INF	0
bin	0	0
bin	1	1
bin	2	0
statistic RandomGeometricGraph.rgnv[187] 	arrivalTime:histogram
field count 1
field mean 128.33
field stddev nan
field sum 128.33
field sqrsum 16468.5889
field min 128.33
field max 128.33
attr interpolationmode  none
attr source  arrivalTime
attr title  "arrival time, histogram"
bin	-INF	0
bin	127.83	0
bin	127.86333333333	0
bin	127.89666666667	0
bin	127.93	0
bin	127.96333333333	0
bin	127.99666666667	0
bin	128.03	0
bin	128.06333333333	0
bin	128.09666666667	0
bin	128.13	0
bin	128.16333333333	0
bin	128.19666666667	0
bin	128.23	0
bin	128.26333333333	0
bin	128.29666666667	0
bin	128.33	1
bin	128.36333333333	0
bin	128.39666666667	0
bin	128.43	0
bin	128.46333333333	0
bin	128.49666666667	0
bin	128.53	0
bin	128.56333333333	0
bin	128.59666666667	0
bin	128.63	0
bin	128.66333333333	0
bin	128.69666666667	0
bin	128.73	0
bin	128.76333333333	0
bin	128.79666666667	0
bin	128.83	0
statistic RandomGeometricGraph.rgnv[187] 	arrivalPerc:histogram
field count 1
field mean 1
field stddev nan
field sum 1
field sqrsum 1
field min 1
field max 1
attr interpolationmode  none
attr source  count(arrival)
attr title  "arrival perc, histogram"
bin	-INF	0
bin	0	0
bin	1	1
bin	2	0
statistic RandomGeometricGraph.rgnv[188] 	arrivalTime:histogram
field count 1
field mean 98.868
field stddev nan
field sum 98.868
field sqrsum 9774.881424
field min 98.868
field max 98.868
attr interpolationmode  none
attr source  arrivalTime
attr title  "arrival time, histogram"
bin	-INF	0
bin	98.368	0
bin	98.401333333333	0
bin	98.434666666667	0
bin	98.468	0
bin	98.501333333333	0
bin	98.534666666667	0
bin	98.568	0
bin	98.601333333333	0
bin	98.634666666667	0
bin	98.668	0
bin	98.701333333333	0
bin	98.734666666667	0
bin	98.768	0
bin	98.801333333333	0
bin	98.834666666667	0
bin	98.868	1
bin	98.901333333333	0
bin	98.934666666667	0
bin	98.968	0
bin	99.001333333333	0
bin	99.034666666667	0
bin	99.068	0
bin	99.101333333333	0
bin	99.134666666667	0
bin	99.168	0
bin	99.201333333333	0
bin	99.234666666667	0
bin	99.268	0
bin	99.301333333333	0
bin	99.334666666667	0
bin	99.368	0
statistic RandomGeometricGraph.rgnv[188] 	arrivalPerc:histogram
field count 1
field mean 1
field stddev nan
field sum 1
field sqrsum 1
field min 1
field max 1
attr interpolationmode  none
attr source  count(arrival)
attr title  "arrival perc, histogram"
bin	-INF	0
bin	0	0
bin	1	1
bin	2	0
statistic RandomGeometricGraph.rgnv[189] 	arrivalTime:histogram
field count 1
field mean 182.274
field stddev nan
field sum 182.274
field sqrsum 33223.811076
field min 182.274
field max 182.274
attr interpolationmode  none
attr source  arrivalTime
attr title  "arrival time, histogram"
bin	-INF	0
bin	181.774	0
bin	181.80733333333	0
bin	181.84066666667	0
bin	181.874	0
bin	181.90733333333	0
bin	181.94066666667	0
bin	181.974	0
bin	182.00733333333	0
bin	182.04066666667	0
bin	182.074	0
bin	182.10733333333	0
bin	182.14066666667	0
bin	182.174	0
bin	182.20733333333	0
bin	182.24066666667	0
bin	182.274	1
bin	182.30733333333	0
bin	182.34066666667	0
bin	182.374	0
bin	182.40733333333	0
bin	182.44066666667	0
bin	182.474	0
bin	182.50733333333	0
bin	182.54066666667	0
bin	182.574	0
bin	182.60733333333	0
bin	182.64066666667	0
bin	182.674	0
bin	182.70733333333	0
bin	182.74066666667	0
bin	182.774	0
statistic RandomGeometricGraph.rgnv[189] 	arrivalPerc:histogram
field count 1
field mean 1
field stddev nan
field sum 1
field sqrsum 1
field min 1
field max 1
attr interpolationmode  none
attr source  count(arrival)
attr title  "arrival perc, histogram"
bin	-INF	0
bin	0	0
bin	1	1
bin	2	0
statistic RandomGeometricGraph.rgnv[190] 	arrivalTime:histogram
field count 1
field mean 86.627
field stddev nan
field sum 86.627
field sqrsum 7504.237129
field min 86.627
field max 86.627
attr interpolationmode  none
attr source  arrivalTime
attr title  "arrival time, histogram"
bin	-INF	0
bin	86.127	0
bin	86.160333333333	0
bin	86.193666666667	0
bin	86.227	0
bin	86.260333333333	0
bin	86.293666666667	0
bin	86.327	0
bin	86.360333333333	0
bin	86.393666666667	0
bin	86.427	0
bin	86.460333333333	0
bin	86.493666666667	0
bin	86.527	0
bin	86.560333333333	0
bin	86.593666666667	0
bin	86.627	1
bin	86.660333333333	0
bin	86.693666666667	0
bin	86.727	0
bin	86.760333333333	0
bin	86.793666666667	0
bin	86.827	0
bin	86.860333333333	0
bin	86.893666666667	0
bin	86.927	0
bin	86.960333333333	0
bin	86.993666666667	0
bin	87.027	0
bin	87.060333333333	0
bin	87.093666666667	0
bin	87.127	0
statistic RandomGeometricGraph.rgnv[190] 	arrivalPerc:histogram
field count 1
field mean 1
field stddev nan
field sum 1
field sqrsum 1
field min 1
field max 1
attr interpolationmode  none
attr source  count(arrival)
attr title  "arrival perc, histogram"
bin	-INF	0
bin	0	0
bin	1	1
bin	2	0
statistic RandomGeometricGraph.rgnv[191] 	arrivalTime:histogram
field count 1
field mean 255.68
field stddev nan
field sum 255.68
field sqrsum 65372.2624
field min 255.68
field max 255.68
attr interpolationmode  none
attr source  arrivalTime
attr title  "arrival time, histogram"
bin	-INF	0
bin	255.18	0
bin	255.21333333333	0
bin	255.24666666667	0
bin	255.28	0
bin	255.31333333333	0
bin	255.34666666667	0
bin	255.38	0
bin	255.41333333333	0
bin	255.44666666667	0
bin	255.48	0
bin	255.51333333333	0
bin	255.54666666667	0
bin	255.58	0
bin	255.61333333333	0
bin	255.64666666667	0
bin	255.68	1
bin	255.71333333333	0
bin	255.74666666667	0
bin	255.78	0
bin	255.81333333333	0
bin	255.84666666667	0
bin	255.88	0
bin	255.91333333333	0
bin	255.94666666667	0
bin	255.98	0
bin	256.01333333333	0
bin	256.04666666667	0
bin	256.08	0
bin	256.11333333333	0
bin	256.14666666667	0
bin	256.18	0
statistic RandomGeometricGraph.rgnv[191] 	arrivalPerc:histogram
field count 1
field mean 1
field stddev nan
field sum 1
field sqrsum 1
field min 1
field max 1
attr interpolationmode  none
attr source  count(arrival)
attr title  "arrival perc, histogram"
bin	-INF	0
bin	0	0
bin	1	1
bin	2	0
statistic RandomGeometricGraph.rgnv[192] 	arrivalTime:histogram
field count 1
field mean 128.32
field stddev nan
field sum 128.32
field sqrsum 16466.0224
field min 128.32
field max 128.32
attr interpolationmode  none
attr source  arrivalTime
attr title  "arrival time, histogram"
bin	-INF	0
bin	127.82	0
bin	127.85333333333	0
bin	127.88666666667	0
bin	127.92	0
bin	127.95333333333	0
bin	127.98666666667	0
bin	128.02	0
bin	128.05333333333	0
bin	128.08666666667	0
bin	128.12	0
bin	128.15333333333	0
bin	128.18666666667	0
bin	128.22	0
bin	128.25333333333	0
bin	128.28666666667	0
bin	128.32	1
bin	128.35333333333	0
bin	128.38666666667	0
bin	128.42	0
bin	128.45333333333	0
bin	128.48666666667	0
bin	128.52	0
bin	128.55333333333	0
bin	128.58666666667	0
bin	128.62	0
bin	128.65333333333	0
bin	128.68666666667	0
bin	128.72	0
bin	128.75333333333	0
bin	128.78666666667	0
bin	128.82	0
statistic RandomGeometricGraph.rgnv[192] 	arrivalPerc:histogram
field count 1
field mean 1
field stddev nan
field sum 1
field sqrsum 1
field min 1
field max 1
attr interpolationmode  none
attr source  count(arrival)
attr title  "arrival perc, histogram"
bin	-INF	0
bin	0	0
bin	1	1
bin	2	0
statistic RandomGeometricGraph.rgnv[193] 	arrivalTime:histogram
field count 1
field mean 309.604
field stddev nan
field sum 309.604
field sqrsum 95854.636816
field min 309.604
field max 309.604
attr interpolationmode  none
attr source  arrivalTime
attr title  "arrival time, histogram"
bin	-INF	0
bin	309.104	0
bin	309.13733333333	0
bin	309.17066666667	0
bin	309.204	0
bin	309.23733333333	0
bin	309.27066666667	0
bin	309.304	0
bin	309.33733333333	0
bin	309.37066666667	0
bin	309.404	0
bin	309.43733333333	0
bin	309.47066666667	0
bin	309.504	0
bin	309.53733333333	0
bin	309.57066666667	0
bin	309.604	1
bin	309.63733333333	0
bin	309.67066666667	0
bin	309.704	0
bin	309.73733333333	0
bin	309.77066666667	0
bin	309.804	0
bin	309.83733333333	0
bin	309.87066666667	0
bin	309.904	0
bin	309.93733333333	0
bin	309.97066666667	0
bin	310.004	0
bin	310.03733333333	0
bin	310.07066666667	0
bin	310.104	0
statistic RandomGeometricGraph.rgnv[193] 	arrivalPerc:histogram
field count 1
field mean 1
field stddev nan
field sum 1
field sqrsum 1
field min 1
field max 1
attr interpolationmode  none
attr source  count(arrival)
attr title  "arrival perc, histogram"
bin	-INF	0
bin	0	0
bin	1	1
bin	2	0
statistic RandomGeometricGraph.rgnv[194] 	arrivalTime:histogram
field count 0
field mean nan
field stddev nan
field sum 0
field sqrsum 0
field min nan
field max nan
attr interpolationmode  none
attr source  arrivalTime
attr title  "arrival time, histogram"
bin	-INF	0
bin	-0.5	0
bin	-0.46666666666667	0
bin	-0.43333333333333	0
bin	-0.4	0
bin	-0.36666666666667	0
bin	-0.33333333333333	0
bin	-0.3	0
bin	-0.26666666666667	0
bin	-0.23333333333333	0
bin	-0.2	0
bin	-0.16666666666667	0
bin	-0.13333333333333	0
bin	-0.1	0
bin	-0.066666666666667	0
bin	-0.033333333333333	0
bin	0	0
bin	0.033333333333333	0
bin	0.066666666666667	0
bin	0.1	0
bin	0.13333333333333	0
bin	0.16666666666667	0
bin	0.2	0
bin	0.23333333333333	0
bin	0.26666666666667	0
bin	0.3	0
bin	0.33333333333333	0
bin	0.36666666666667	0
bin	0.4	0
bin	0.43333333333333	0
bin	0.46666666666667	0
bin	0.5	0
statistic RandomGeometricGraph.rgnv[194] 	arrivalPerc:histogram
field count 0
field mean nan
field stddev nan
field sum 0
field sqrsum 0
field min nan
field max nan
attr interpolationmode  none
attr source  count(arrival)
attr title  "arrival perc, histogram"
bin	-INF	0
bin	-0.5	0
bin	-0.46666666666667	0
bin	-0.43333333333333	0
bin	-0.4	0
bin	-0.36666666666667	0
bin	-0.33333333333333	0
bin	-0.3	0
bin	-0.26666666666667	0
bin	-0.23333333333333	0
bin	-0.2	0
bin	-0.16666666666667	0
bin	-0.13333333333333	0
bin	-0.1	0
bin	-0.066666666666667	0
bin	-0.033333333333333	0
bin	0	0
bin	0.033333333333333	0
bin	0.066666666666667	0
bin	0.1	0
bin	0.13333333333333	0
bin	0.16666666666667	0
bin	0.2	0
bin	0.23333333333333	0
bin	0.26666666666667	0
bin	0.3	0
bin	0.33333333333333	0
bin	0.36666666666667	0
bin	0.4	0
bin	0.43333333333333	0
bin	0.46666666666667	0
bin	0.5	0
statistic RandomGeometricGraph.rgnv[195] 	arrivalTime:histogram
field count 1
field mean 160.033
field stddev nan
field sum 160.033
field sqrsum 25610.561089
field min 160.033
field max 160.033
attr interpolationmode  none
attr source  arrivalTime
attr title  "arrival time, histogram"
bin	-INF	0
bin	159.533	0
bin	159.56633333333	0
bin	159.59966666667	0
bin	159.633	0
bin	159.66633333333	0
bin	159.69966666667	0
bin	159.733	0
bin	159.76633333333	0
bin	159.79966666667	0
bin	159.833	0
bin	159.86633333333	0
bin	159.89966666667	0
bin	159.933	0
bin	159.96633333333	0
bin	159.99966666667	0
bin	160.033	1
bin	160.06633333333	0
bin	160.09966666667	0
bin	160.133	0
bin	160.16633333333	0
bin	160.19966666667	0
bin	160.233	0
bin	160.26633333333	0
bin	160.29966666667	0
bin	160.333	0
bin	160.36633333333	0
bin	160.39966666667	0
bin	160.433	0
bin	160.46633333333	0
bin	160.49966666667	0
bin	160.533	0
statistic RandomGeometricGraph.rgnv[195] 	arrivalPerc:histogram
field count 1
field mean 1
field stddev nan
field sum 1
field sqrsum 1
field min 1
field max 1
attr interpolationmode  none
attr source  count(arrival)
attr title  "arrival perc, histogram"
bin	-INF	0
bin	0	0
bin	1	1
bin	2	0
statistic RandomGeometricGraph.rgnv[196] 	arrivalTime:histogram
field count 1
field mean 140.571
field stddev nan
field sum 140.571
field sqrsum 19760.206041
field min 140.571
field max 140.571
attr interpolationmode  none
attr source  arrivalTime
attr title  "arrival time, histogram"
bin	-INF	0
bin	140.071	0
bin	140.10433333333	0
bin	140.13766666667	0
bin	140.171	0
bin	140.20433333333	0
bin	140.23766666667	0
bin	140.271	0
bin	140.30433333333	0
bin	140.33766666667	0
bin	140.371	0
bin	140.40433333333	0
bin	140.43766666667	0
bin	140.471	0
bin	140.50433333333	0
bin	140.53766666667	0
bin	140.571	1
bin	140.60433333333	0
bin	140.63766666667	0
bin	140.671	0
bin	140.70433333333	0
bin	140.73766666667	0
bin	140.771	0
bin	140.80433333333	0
bin	140.83766666667	0
bin	140.871	0
bin	140.90433333333	0
bin	140.93766666667	0
bin	140.971	0
bin	141.00433333333	0
bin	141.03766666667	0
bin	141.071	0
statistic RandomGeometricGraph.rgnv[196] 	arrivalPerc:histogram
field count 1
field mean 1
field stddev nan
field sum 1
field sqrsum 1
field min 1
field max 1
attr interpolationmode  none
attr source  count(arrival)
attr title  "arrival perc, histogram"
bin	-INF	0
bin	0	0
bin	1	1
bin	2	0
statistic RandomGeometricGraph.rgnv[197] 	arrivalTime:histogram
field count 1
field mean 160.013
field stddev nan
field sum 160.013
field sqrsum 25604.160169
field min 160.013
field max 160.013
attr interpolationmode  none
attr source  arrivalTime
attr title  "arrival time, histogram"
bin	-INF	0
bin	159.513	0
bin	159.54633333333	0
bin	159.57966666667	0
bin	159.613	0
bin	159.64633333333	0
bin	159.67966666667	0
bin	159.713	0
bin	159.74633333333	0
bin	159.77966666667	0
bin	159.813	0
bin	159.84633333333	0
bin	159.87966666667	0
bin	159.913	0
bin	159.94633333333	0
bin	159.97966666667	0
bin	160.013	1
bin	160.04633333333	0
bin	160.07966666667	0
bin	160.113	0
bin	160.14633333333	0
bin	160.17966666667	0
bin	160.213	0
bin	160.24633333333	0
bin	160.27966666667	0
bin	160.313	0
bin	160.34633333333	0
bin	160.37966666667	0
bin	160.413	0
bin	160.44633333333	0
bin	160.47966666667	0
bin	160.513	0
statistic RandomGeometricGraph.rgnv[197] 	arrivalPerc:histogram
field count 1
field mean 1
field stddev nan
field sum 1
field sqrsum 1
field min 1
field max 1
attr interpolationmode  none
attr source  count(arrival)
attr title  "arrival perc, histogram"
bin	-INF	0
bin	0	0
bin	1	1
bin	2	0
statistic RandomGeometricGraph.rgnv[198] 	arrivalTime:histogram
field count 1
field mean 49.934
field stddev nan
field sum 49.934
field sqrsum 2493.404356
field min 49.934
field max 49.934
attr interpolationmode  none
attr source  arrivalTime
attr title  "arrival time, histogram"
bin	-INF	0
bin	49.434	0
bin	49.467333333333	0
bin	49.500666666667	0
bin	49.534	0
bin	49.567333333333	0
bin	49.600666666667	0
bin	49.634	0
bin	49.667333333333	0
bin	49.700666666667	0
bin	49.734	0
bin	49.767333333333	0
bin	49.800666666667	0
bin	49.834	0
bin	49.867333333333	0
bin	49.900666666667	0
bin	49.934	1
bin	49.967333333333	0
bin	50.000666666667	0
bin	50.034	0
bin	50.067333333333	0
bin	50.100666666667	0
bin	50.134	0
bin	50.167333333333	0
bin	50.200666666667	0
bin	50.234	0
bin	50.267333333333	0
bin	50.300666666667	0
bin	50.334	0
bin	50.367333333333	0
bin	50.400666666667	0
bin	50.434	0
statistic RandomGeometricGraph.rgnv[198] 	arrivalPerc:histogram
field count 1
field mean 1
field stddev nan
field sum 1
field sqrsum 1
field min 1
field max 1
attr interpolationmode  none
attr source  count(arrival)
attr title  "arrival perc, histogram"
bin	-INF	0
bin	0	0
bin	1	1
bin	2	0
statistic RandomGeometricGraph.rgnv[199] 	arrivalTime:histogram
field count 1
field mean 147.782
field stddev nan
field sum 147.782
field sqrsum 21839.519524
field min 147.782
field max 147.782
attr interpolationmode  none
attr source  arrivalTime
attr title  "arrival time, histogram"
bin	-INF	0
bin	147.282	0
bin	147.31533333333	0
bin	147.34866666667	0
bin	147.382	0
bin	147.41533333333	0
bin	147.44866666667	0
bin	147.482	0
bin	147.51533333333	0
bin	147.54866666667	0
bin	147.582	0
bin	147.61533333333	0
bin	147.64866666667	0
bin	147.682	0
bin	147.71533333333	0
bin	147.74866666667	0
bin	147.782	1
bin	147.81533333333	0
bin	147.84866666667	0
bin	147.882	0
bin	147.91533333333	0
bin	147.94866666667	0
bin	147.982	0
bin	148.01533333333	0
bin	148.04866666667	0
bin	148.082	0
bin	148.11533333333	0
bin	148.14866666667	0
bin	148.182	0
bin	148.21533333333	0
bin	148.24866666667	0
bin	148.282	0
statistic RandomGeometricGraph.rgnv[199] 	arrivalPerc:histogram
field count 1
field mean 1
field stddev nan
field sum 1
field sqrsum 1
field min 1
field max 1
attr interpolationmode  none
attr source  count(arrival)
attr title  "arrival perc, histogram"
bin	-INF	0
bin	0	0
bin	1	1
bin	2	0
