version 2
run rgg200-0-20170110-16:23:31-8952
attr configname rgg200
attr datetime 20170110-16:23:31
attr experiment rgg200
attr inifile iniFile/D001/omnetpp_15D001.ini
attr iterationvars ""
attr iterationvars2 $repetition=0
attr measurement ""
attr network blegossipprj.net.randomgeometricgraph.RandomGeometricGraph
attr processid 8952
attr repetition 0
attr replication #0
attr resultdir ../../results/D001/r15D001
attr runnumber 0
attr seedset 0
param RandomGeometricGraph.netSize 200
param RandomGeometricGraph.radius 15
param RandomGeometricGraph.rgnv[*].areaLength 141
param RandomGeometricGraph.rgnv[*].areaWidth 141

statistic RandomGeometricGraph.sc 	arrivalPercentage
field count 192
field mean 1
field stddev 0
field sum 192
field sqrsum 192
field min 1
field max 1
attr type  int
bin	-INF	0
bin	0	0
bin	1	192
bin	2	0
statistic RandomGeometricGraph.sc 	arrivalTime
field count 192
field mean 206.5548125
field stddev 74.584945430534
field sum 39658.524
field sqrsum 9254175.579058
field min 0
field max 351.307
bin	-INF	0
bin	-109.4935	0
bin	-94.894366666667	0
bin	-80.295233333333	0
bin	-65.6961	0
bin	-51.096966666667	0
bin	-36.497833333333	0
bin	-21.8987	0
bin	-7.2995666666667	1
bin	7.2995666666667	1
bin	21.8987	2
bin	36.497833333333	4
bin	51.096966666667	3
bin	65.6961	3
bin	80.295233333333	3
bin	94.894366666667	5
bin	109.4935	6
bin	124.09263333333	8
bin	138.69176666667	9
bin	153.2909	7
bin	167.89003333333	14
bin	182.48916666667	12
bin	197.0883	9
bin	211.68743333333	17
bin	226.28656666667	14
bin	240.8857	20
bin	255.48483333333	17
bin	270.08396666667	13
bin	284.6831	7
bin	299.28223333333	7
bin	313.88136666667	5
bin	328.4805	5
statistic RandomGeometricGraph.rgnv[0] 	arrivalTime:histogram
field count 1
field mean 265.67
field stddev nan
field sum 265.67
field sqrsum 70580.5489
field min 265.67
field max 265.67
attr interpolationmode  none
attr source  arrivalTime
attr title  "arrival time, histogram"
bin	-INF	0
bin	265.17	0
bin	265.20333333333	0
bin	265.23666666667	0
bin	265.27	0
bin	265.30333333333	0
bin	265.33666666667	0
bin	265.37	0
bin	265.40333333333	0
bin	265.43666666667	0
bin	265.47	0
bin	265.50333333333	0
bin	265.53666666667	0
bin	265.57	0
bin	265.60333333333	0
bin	265.63666666667	0
bin	265.67	1
bin	265.70333333333	0
bin	265.73666666667	0
bin	265.77	0
bin	265.80333333333	0
bin	265.83666666667	0
bin	265.87	0
bin	265.90333333333	0
bin	265.93666666667	0
bin	265.97	0
bin	266.00333333333	0
bin	266.03666666667	0
bin	266.07	0
bin	266.10333333333	0
bin	266.13666666667	0
bin	266.17	0
statistic RandomGeometricGraph.rgnv[0] 	arrivalPerc:histogram
field count 1
field mean 1
field stddev nan
field sum 1
field sqrsum 1
field min 1
field max 1
attr interpolationmode  none
attr source  count(arrival)
attr title  "arrival perc, histogram"
bin	-INF	0
bin	0	0
bin	1	1
bin	2	0
statistic RandomGeometricGraph.rgnv[1] 	arrivalTime:histogram
field count 1
field mean 255.67
field stddev nan
field sum 255.67
field sqrsum 65367.1489
field min 255.67
field max 255.67
attr interpolationmode  none
attr source  arrivalTime
attr title  "arrival time, histogram"
bin	-INF	0
bin	255.17	0
bin	255.20333333333	0
bin	255.23666666667	0
bin	255.27	0
bin	255.30333333333	0
bin	255.33666666667	0
bin	255.37	0
bin	255.40333333333	0
bin	255.43666666667	0
bin	255.47	0
bin	255.50333333333	0
bin	255.53666666667	0
bin	255.57	0
bin	255.60333333333	0
bin	255.63666666667	0
bin	255.67	1
bin	255.70333333333	0
bin	255.73666666667	0
bin	255.77	0
bin	255.80333333333	0
bin	255.83666666667	0
bin	255.87	0
bin	255.90333333333	0
bin	255.93666666667	0
bin	255.97	0
bin	256.00333333333	0
bin	256.03666666667	0
bin	256.07	0
bin	256.10333333333	0
bin	256.13666666667	0
bin	256.17	0
statistic RandomGeometricGraph.rgnv[1] 	arrivalPerc:histogram
field count 1
field mean 1
field stddev nan
field sum 1
field sqrsum 1
field min 1
field max 1
attr interpolationmode  none
attr source  count(arrival)
attr title  "arrival perc, histogram"
bin	-INF	0
bin	0	0
bin	1	1
bin	2	0
statistic RandomGeometricGraph.rgnv[2] 	arrivalTime:histogram
field count 1
field mean 243.439
field stddev nan
field sum 243.439
field sqrsum 59262.546721
field min 243.439
field max 243.439
attr interpolationmode  none
attr source  arrivalTime
attr title  "arrival time, histogram"
bin	-INF	0
bin	242.939	0
bin	242.97233333333	0
bin	243.00566666667	0
bin	243.039	0
bin	243.07233333333	0
bin	243.10566666667	0
bin	243.139	0
bin	243.17233333333	0
bin	243.20566666667	0
bin	243.239	0
bin	243.27233333333	0
bin	243.30566666667	0
bin	243.339	0
bin	243.37233333333	0
bin	243.40566666667	0
bin	243.439	1
bin	243.47233333333	0
bin	243.50566666667	0
bin	243.539	0
bin	243.57233333333	0
bin	243.60566666667	0
bin	243.639	0
bin	243.67233333333	0
bin	243.70566666667	0
bin	243.739	0
bin	243.77233333333	0
bin	243.80566666667	0
bin	243.839	0
bin	243.87233333333	0
bin	243.90566666667	0
bin	243.939	0
statistic RandomGeometricGraph.rgnv[2] 	arrivalPerc:histogram
field count 1
field mean 1
field stddev nan
field sum 1
field sqrsum 1
field min 1
field max 1
attr interpolationmode  none
attr source  count(arrival)
attr title  "arrival perc, histogram"
bin	-INF	0
bin	0	0
bin	1	1
bin	2	0
statistic RandomGeometricGraph.rgnv[3] 	arrivalTime:histogram
field count 1
field mean 206.746
field stddev nan
field sum 206.746
field sqrsum 42743.908516
field min 206.746
field max 206.746
attr interpolationmode  none
attr source  arrivalTime
attr title  "arrival time, histogram"
bin	-INF	0
bin	206.246	0
bin	206.27933333333	0
bin	206.31266666667	0
bin	206.346	0
bin	206.37933333333	0
bin	206.41266666667	0
bin	206.446	0
bin	206.47933333333	0
bin	206.51266666667	0
bin	206.546	0
bin	206.57933333333	0
bin	206.61266666667	0
bin	206.646	0
bin	206.67933333333	0
bin	206.71266666667	0
bin	206.746	1
bin	206.77933333333	0
bin	206.81266666667	0
bin	206.846	0
bin	206.87933333333	0
bin	206.91266666667	0
bin	206.946	0
bin	206.97933333333	0
bin	207.01266666667	0
bin	207.046	0
bin	207.07933333333	0
bin	207.11266666667	0
bin	207.146	0
bin	207.17933333333	0
bin	207.21266666667	0
bin	207.246	0
statistic RandomGeometricGraph.rgnv[3] 	arrivalPerc:histogram
field count 1
field mean 1
field stddev nan
field sum 1
field sqrsum 1
field min 1
field max 1
attr interpolationmode  none
attr source  count(arrival)
attr title  "arrival perc, histogram"
bin	-INF	0
bin	0	0
bin	1	1
bin	2	0
statistic RandomGeometricGraph.rgnv[4] 	arrivalTime:histogram
field count 1
field mean 236.218
field stddev nan
field sum 236.218
field sqrsum 55798.943524
field min 236.218
field max 236.218
attr interpolationmode  none
attr source  arrivalTime
attr title  "arrival time, histogram"
bin	-INF	0
bin	235.718	0
bin	235.75133333333	0
bin	235.78466666667	0
bin	235.818	0
bin	235.85133333333	0
bin	235.88466666667	0
bin	235.918	0
bin	235.95133333333	0
bin	235.98466666667	0
bin	236.018	0
bin	236.05133333333	0
bin	236.08466666667	0
bin	236.118	0
bin	236.15133333333	0
bin	236.18466666667	0
bin	236.218	1
bin	236.25133333333	0
bin	236.28466666667	0
bin	236.318	0
bin	236.35133333333	0
bin	236.38466666667	0
bin	236.418	0
bin	236.45133333333	0
bin	236.48466666667	0
bin	236.518	0
bin	236.55133333333	0
bin	236.58466666667	0
bin	236.618	0
bin	236.65133333333	0
bin	236.68466666667	0
bin	236.718	0
statistic RandomGeometricGraph.rgnv[4] 	arrivalPerc:histogram
field count 1
field mean 1
field stddev nan
field sum 1
field sqrsum 1
field min 1
field max 1
attr interpolationmode  none
attr source  count(arrival)
attr title  "arrival perc, histogram"
bin	-INF	0
bin	0	0
bin	1	1
bin	2	0
statistic RandomGeometricGraph.rgnv[5] 	arrivalTime:histogram
field count 1
field mean 192.284
field stddev nan
field sum 192.284
field sqrsum 36973.136656
field min 192.284
field max 192.284
attr interpolationmode  none
attr source  arrivalTime
attr title  "arrival time, histogram"
bin	-INF	0
bin	191.784	0
bin	191.81733333333	0
bin	191.85066666667	0
bin	191.884	0
bin	191.91733333333	0
bin	191.95066666667	0
bin	191.984	0
bin	192.01733333333	0
bin	192.05066666667	0
bin	192.084	0
bin	192.11733333333	0
bin	192.15066666667	0
bin	192.184	0
bin	192.21733333333	0
bin	192.25066666667	0
bin	192.284	1
bin	192.31733333333	0
bin	192.35066666667	0
bin	192.384	0
bin	192.41733333333	0
bin	192.45066666667	0
bin	192.484	0
bin	192.51733333333	0
bin	192.55066666667	0
bin	192.584	0
bin	192.61733333333	0
bin	192.65066666667	0
bin	192.684	0
bin	192.71733333333	0
bin	192.75066666667	0
bin	192.784	0
statistic RandomGeometricGraph.rgnv[5] 	arrivalPerc:histogram
field count 1
field mean 1
field stddev nan
field sum 1
field sqrsum 1
field min 1
field max 1
attr interpolationmode  none
attr source  count(arrival)
attr title  "arrival perc, histogram"
bin	-INF	0
bin	0	0
bin	1	1
bin	2	0
statistic RandomGeometricGraph.rgnv[6] 	arrivalTime:histogram
field count 1
field mean 272.911
field stddev nan
field sum 272.911
field sqrsum 74480.413921
field min 272.911
field max 272.911
attr interpolationmode  none
attr source  arrivalTime
attr title  "arrival time, histogram"
bin	-INF	0
bin	272.411	0
bin	272.44433333333	0
bin	272.47766666667	0
bin	272.511	0
bin	272.54433333333	0
bin	272.57766666667	0
bin	272.611	0
bin	272.64433333333	0
bin	272.67766666667	0
bin	272.711	0
bin	272.74433333333	0
bin	272.77766666667	0
bin	272.811	0
bin	272.84433333333	0
bin	272.87766666667	0
bin	272.911	1
bin	272.94433333333	0
bin	272.97766666667	0
bin	273.011	0
bin	273.04433333333	0
bin	273.07766666667	0
bin	273.111	0
bin	273.14433333333	0
bin	273.17766666667	0
bin	273.211	0
bin	273.24433333333	0
bin	273.27766666667	0
bin	273.311	0
bin	273.34433333333	0
bin	273.37766666667	0
bin	273.411	0
statistic RandomGeometricGraph.rgnv[6] 	arrivalPerc:histogram
field count 1
field mean 1
field stddev nan
field sum 1
field sqrsum 1
field min 1
field max 1
attr interpolationmode  none
attr source  count(arrival)
attr title  "arrival perc, histogram"
bin	-INF	0
bin	0	0
bin	1	1
bin	2	0
statistic RandomGeometricGraph.rgnv[7] 	arrivalTime:histogram
field count 0
field mean nan
field stddev nan
field sum 0
field sqrsum 0
field min nan
field max nan
attr interpolationmode  none
attr source  arrivalTime
attr title  "arrival time, histogram"
bin	-INF	0
bin	-0.5	0
bin	-0.46666666666667	0
bin	-0.43333333333333	0
bin	-0.4	0
bin	-0.36666666666667	0
bin	-0.33333333333333	0
bin	-0.3	0
bin	-0.26666666666667	0
bin	-0.23333333333333	0
bin	-0.2	0
bin	-0.16666666666667	0
bin	-0.13333333333333	0
bin	-0.1	0
bin	-0.066666666666667	0
bin	-0.033333333333333	0
bin	0	0
bin	0.033333333333333	0
bin	0.066666666666667	0
bin	0.1	0
bin	0.13333333333333	0
bin	0.16666666666667	0
bin	0.2	0
bin	0.23333333333333	0
bin	0.26666666666667	0
bin	0.3	0
bin	0.33333333333333	0
bin	0.36666666666667	0
bin	0.4	0
bin	0.43333333333333	0
bin	0.46666666666667	0
bin	0.5	0
statistic RandomGeometricGraph.rgnv[7] 	arrivalPerc:histogram
field count 0
field mean nan
field stddev nan
field sum 0
field sqrsum 0
field min nan
field max nan
attr interpolationmode  none
attr source  count(arrival)
attr title  "arrival perc, histogram"
bin	-INF	0
bin	-0.5	0
bin	-0.46666666666667	0
bin	-0.43333333333333	0
bin	-0.4	0
bin	-0.36666666666667	0
bin	-0.33333333333333	0
bin	-0.3	0
bin	-0.26666666666667	0
bin	-0.23333333333333	0
bin	-0.2	0
bin	-0.16666666666667	0
bin	-0.13333333333333	0
bin	-0.1	0
bin	-0.066666666666667	0
bin	-0.033333333333333	0
bin	0	0
bin	0.033333333333333	0
bin	0.066666666666667	0
bin	0.1	0
bin	0.13333333333333	0
bin	0.16666666666667	0
bin	0.2	0
bin	0.23333333333333	0
bin	0.26666666666667	0
bin	0.3	0
bin	0.33333333333333	0
bin	0.36666666666667	0
bin	0.4	0
bin	0.43333333333333	0
bin	0.46666666666667	0
bin	0.5	0
statistic RandomGeometricGraph.rgnv[8] 	arrivalTime:histogram
field count 1
field mean 133.35
field stddev nan
field sum 133.35
field sqrsum 17782.2225
field min 133.35
field max 133.35
attr interpolationmode  none
attr source  arrivalTime
attr title  "arrival time, histogram"
bin	-INF	0
bin	132.85	0
bin	132.88333333333	0
bin	132.91666666667	0
bin	132.95	0
bin	132.98333333333	0
bin	133.01666666667	0
bin	133.05	0
bin	133.08333333333	0
bin	133.11666666667	0
bin	133.15	0
bin	133.18333333333	0
bin	133.21666666667	0
bin	133.25	0
bin	133.28333333333	0
bin	133.31666666667	0
bin	133.35	1
bin	133.38333333333	0
bin	133.41666666667	0
bin	133.45	0
bin	133.48333333333	0
bin	133.51666666667	0
bin	133.55	0
bin	133.58333333333	0
bin	133.61666666667	0
bin	133.65	0
bin	133.68333333333	0
bin	133.71666666667	0
bin	133.75	0
bin	133.78333333333	0
bin	133.81666666667	0
bin	133.85	0
statistic RandomGeometricGraph.rgnv[8] 	arrivalPerc:histogram
field count 1
field mean 1
field stddev nan
field sum 1
field sqrsum 1
field min 1
field max 1
attr interpolationmode  none
attr source  count(arrival)
attr title  "arrival perc, histogram"
bin	-INF	0
bin	0	0
bin	1	1
bin	2	0
statistic RandomGeometricGraph.rgnv[9] 	arrivalTime:histogram
field count 1
field mean 248.439
field stddev nan
field sum 248.439
field sqrsum 61721.936721
field min 248.439
field max 248.439
attr interpolationmode  none
attr source  arrivalTime
attr title  "arrival time, histogram"
bin	-INF	0
bin	247.939	0
bin	247.97233333333	0
bin	248.00566666667	0
bin	248.039	0
bin	248.07233333333	0
bin	248.10566666667	0
bin	248.139	0
bin	248.17233333333	0
bin	248.20566666667	0
bin	248.239	0
bin	248.27233333333	0
bin	248.30566666667	0
bin	248.339	0
bin	248.37233333333	0
bin	248.40566666667	0
bin	248.439	1
bin	248.47233333333	0
bin	248.50566666667	0
bin	248.539	0
bin	248.57233333333	0
bin	248.60566666667	0
bin	248.639	0
bin	248.67233333333	0
bin	248.70566666667	0
bin	248.739	0
bin	248.77233333333	0
bin	248.80566666667	0
bin	248.839	0
bin	248.87233333333	0
bin	248.90566666667	0
bin	248.939	0
statistic RandomGeometricGraph.rgnv[9] 	arrivalPerc:histogram
field count 1
field mean 1
field stddev nan
field sum 1
field sqrsum 1
field min 1
field max 1
attr interpolationmode  none
attr source  count(arrival)
attr title  "arrival perc, histogram"
bin	-INF	0
bin	0	0
bin	1	1
bin	2	0
statistic RandomGeometricGraph.rgnv[10] 	arrivalTime:histogram
field count 1
field mean 260.68
field stddev nan
field sum 260.68
field sqrsum 67954.0624
field min 260.68
field max 260.68
attr interpolationmode  none
attr source  arrivalTime
attr title  "arrival time, histogram"
bin	-INF	0
bin	260.18	0
bin	260.21333333333	0
bin	260.24666666667	0
bin	260.28	0
bin	260.31333333333	0
bin	260.34666666667	0
bin	260.38	0
bin	260.41333333333	0
bin	260.44666666667	0
bin	260.48	0
bin	260.51333333333	0
bin	260.54666666667	0
bin	260.58	0
bin	260.61333333333	0
bin	260.64666666667	0
bin	260.68	1
bin	260.71333333333	0
bin	260.74666666667	0
bin	260.78	0
bin	260.81333333333	0
bin	260.84666666667	0
bin	260.88	0
bin	260.91333333333	0
bin	260.94666666667	0
bin	260.98	0
bin	261.01333333333	0
bin	261.04666666667	0
bin	261.08	0
bin	261.11333333333	0
bin	261.14666666667	0
bin	261.18	0
statistic RandomGeometricGraph.rgnv[10] 	arrivalPerc:histogram
field count 1
field mean 1
field stddev nan
field sum 1
field sqrsum 1
field min 1
field max 1
attr interpolationmode  none
attr source  count(arrival)
attr title  "arrival perc, histogram"
bin	-INF	0
bin	0	0
bin	1	1
bin	2	0
statistic RandomGeometricGraph.rgnv[11] 	arrivalTime:histogram
field count 1
field mean 206.746
field stddev nan
field sum 206.746
field sqrsum 42743.908516
field min 206.746
field max 206.746
attr interpolationmode  none
attr source  arrivalTime
attr title  "arrival time, histogram"
bin	-INF	0
bin	206.246	0
bin	206.27933333333	0
bin	206.31266666667	0
bin	206.346	0
bin	206.37933333333	0
bin	206.41266666667	0
bin	206.446	0
bin	206.47933333333	0
bin	206.51266666667	0
bin	206.546	0
bin	206.57933333333	0
bin	206.61266666667	0
bin	206.646	0
bin	206.67933333333	0
bin	206.71266666667	0
bin	206.746	1
bin	206.77933333333	0
bin	206.81266666667	0
bin	206.846	0
bin	206.87933333333	0
bin	206.91266666667	0
bin	206.946	0
bin	206.97933333333	0
bin	207.01266666667	0
bin	207.046	0
bin	207.07933333333	0
bin	207.11266666667	0
bin	207.146	0
bin	207.17933333333	0
bin	207.21266666667	0
bin	207.246	0
statistic RandomGeometricGraph.rgnv[11] 	arrivalPerc:histogram
field count 1
field mean 1
field stddev nan
field sum 1
field sqrsum 1
field min 1
field max 1
attr interpolationmode  none
attr source  count(arrival)
attr title  "arrival perc, histogram"
bin	-INF	0
bin	0	0
bin	1	1
bin	2	0
statistic RandomGeometricGraph.rgnv[12] 	arrivalTime:histogram
field count 1
field mean 255.66
field stddev nan
field sum 255.66
field sqrsum 65362.0356
field min 255.66
field max 255.66
attr interpolationmode  none
attr source  arrivalTime
attr title  "arrival time, histogram"
bin	-INF	0
bin	255.16	0
bin	255.19333333333	0
bin	255.22666666667	0
bin	255.26	0
bin	255.29333333333	0
bin	255.32666666667	0
bin	255.36	0
bin	255.39333333333	0
bin	255.42666666667	0
bin	255.46	0
bin	255.49333333333	0
bin	255.52666666667	0
bin	255.56	0
bin	255.59333333333	0
bin	255.62666666667	0
bin	255.66	1
bin	255.69333333333	0
bin	255.72666666667	0
bin	255.76	0
bin	255.79333333333	0
bin	255.82666666667	0
bin	255.86	0
bin	255.89333333333	0
bin	255.92666666667	0
bin	255.96	0
bin	255.99333333333	0
bin	256.02666666667	0
bin	256.06	0
bin	256.09333333333	0
bin	256.12666666667	0
bin	256.16	0
statistic RandomGeometricGraph.rgnv[12] 	arrivalPerc:histogram
field count 1
field mean 1
field stddev nan
field sum 1
field sqrsum 1
field min 1
field max 1
attr interpolationmode  none
attr source  count(arrival)
attr title  "arrival perc, histogram"
bin	-INF	0
bin	0	0
bin	1	1
bin	2	0
statistic RandomGeometricGraph.rgnv[13] 	arrivalTime:histogram
field count 1
field mean 231.198
field stddev nan
field sum 231.198
field sqrsum 53452.515204
field min 231.198
field max 231.198
attr interpolationmode  none
attr source  arrivalTime
attr title  "arrival time, histogram"
bin	-INF	0
bin	230.698	0
bin	230.73133333333	0
bin	230.76466666667	0
bin	230.798	0
bin	230.83133333333	0
bin	230.86466666667	0
bin	230.898	0
bin	230.93133333333	0
bin	230.96466666667	0
bin	230.998	0
bin	231.03133333333	0
bin	231.06466666667	0
bin	231.098	0
bin	231.13133333333	0
bin	231.16466666667	0
bin	231.198	1
bin	231.23133333333	0
bin	231.26466666667	0
bin	231.298	0
bin	231.33133333333	0
bin	231.36466666667	0
bin	231.398	0
bin	231.43133333333	0
bin	231.46466666667	0
bin	231.498	0
bin	231.53133333333	0
bin	231.56466666667	0
bin	231.598	0
bin	231.63133333333	0
bin	231.66466666667	0
bin	231.698	0
statistic RandomGeometricGraph.rgnv[13] 	arrivalPerc:histogram
field count 1
field mean 1
field stddev nan
field sum 1
field sqrsum 1
field min 1
field max 1
attr interpolationmode  none
attr source  count(arrival)
attr title  "arrival perc, histogram"
bin	-INF	0
bin	0	0
bin	1	1
bin	2	0
statistic RandomGeometricGraph.rgnv[14] 	arrivalTime:histogram
field count 1
field mean 96.647
field stddev nan
field sum 96.647
field sqrsum 9340.642609
field min 96.647
field max 96.647
attr interpolationmode  none
attr source  arrivalTime
attr title  "arrival time, histogram"
bin	-INF	0
bin	96.147	0
bin	96.180333333333	0
bin	96.213666666667	0
bin	96.247	0
bin	96.280333333333	0
bin	96.313666666667	0
bin	96.347	0
bin	96.380333333333	0
bin	96.413666666667	0
bin	96.447	0
bin	96.480333333333	0
bin	96.513666666667	0
bin	96.547	0
bin	96.580333333333	0
bin	96.613666666667	0
bin	96.647	1
bin	96.680333333333	0
bin	96.713666666667	0
bin	96.747	0
bin	96.780333333333	0
bin	96.813666666667	0
bin	96.847	0
bin	96.880333333333	0
bin	96.913666666667	0
bin	96.947	0
bin	96.980333333333	0
bin	97.013666666667	0
bin	97.047	0
bin	97.080333333333	0
bin	97.113666666667	0
bin	97.147	0
statistic RandomGeometricGraph.rgnv[14] 	arrivalPerc:histogram
field count 1
field mean 1
field stddev nan
field sum 1
field sqrsum 1
field min 1
field max 1
attr interpolationmode  none
attr source  count(arrival)
attr title  "arrival perc, histogram"
bin	-INF	0
bin	0	0
bin	1	1
bin	2	0
statistic RandomGeometricGraph.rgnv[15] 	arrivalTime:histogram
field count 1
field mean 157.802
field stddev nan
field sum 157.802
field sqrsum 24901.471204
field min 157.802
field max 157.802
attr interpolationmode  none
attr source  arrivalTime
attr title  "arrival time, histogram"
bin	-INF	0
bin	157.302	0
bin	157.33533333333	0
bin	157.36866666667	0
bin	157.402	0
bin	157.43533333333	0
bin	157.46866666667	0
bin	157.502	0
bin	157.53533333333	0
bin	157.56866666667	0
bin	157.602	0
bin	157.63533333333	0
bin	157.66866666667	0
bin	157.702	0
bin	157.73533333333	0
bin	157.76866666667	0
bin	157.802	1
bin	157.83533333333	0
bin	157.86866666667	0
bin	157.902	0
bin	157.93533333333	0
bin	157.96866666667	0
bin	158.002	0
bin	158.03533333333	0
bin	158.06866666667	0
bin	158.102	0
bin	158.13533333333	0
bin	158.16866666667	0
bin	158.202	0
bin	158.23533333333	0
bin	158.26866666667	0
bin	158.302	0
statistic RandomGeometricGraph.rgnv[15] 	arrivalPerc:histogram
field count 1
field mean 1
field stddev nan
field sum 1
field sqrsum 1
field min 1
field max 1
attr interpolationmode  none
attr source  count(arrival)
attr title  "arrival perc, histogram"
bin	-INF	0
bin	0	0
bin	1	1
bin	2	0
statistic RandomGeometricGraph.rgnv[16] 	arrivalTime:histogram
field count 1
field mean 272.901
field stddev nan
field sum 272.901
field sqrsum 74474.955801
field min 272.901
field max 272.901
attr interpolationmode  none
attr source  arrivalTime
attr title  "arrival time, histogram"
bin	-INF	0
bin	272.401	0
bin	272.43433333333	0
bin	272.46766666667	0
bin	272.501	0
bin	272.53433333333	0
bin	272.56766666667	0
bin	272.601	0
bin	272.63433333333	0
bin	272.66766666667	0
bin	272.701	0
bin	272.73433333333	0
bin	272.76766666667	0
bin	272.801	0
bin	272.83433333333	0
bin	272.86766666667	0
bin	272.901	1
bin	272.93433333333	0
bin	272.96766666667	0
bin	273.001	0
bin	273.03433333333	0
bin	273.06766666667	0
bin	273.101	0
bin	273.13433333333	0
bin	273.16766666667	0
bin	273.201	0
bin	273.23433333333	0
bin	273.26766666667	0
bin	273.301	0
bin	273.33433333333	0
bin	273.36766666667	0
bin	273.401	0
statistic RandomGeometricGraph.rgnv[16] 	arrivalPerc:histogram
field count 1
field mean 1
field stddev nan
field sum 1
field sqrsum 1
field min 1
field max 1
attr interpolationmode  none
attr source  count(arrival)
attr title  "arrival perc, histogram"
bin	-INF	0
bin	0	0
bin	1	1
bin	2	0
statistic RandomGeometricGraph.rgnv[17] 	arrivalTime:histogram
field count 1
field mean 304.604
field stddev nan
field sum 304.604
field sqrsum 92783.596816
field min 304.604
field max 304.604
attr interpolationmode  none
attr source  arrivalTime
attr title  "arrival time, histogram"
bin	-INF	0
bin	304.104	0
bin	304.13733333333	0
bin	304.17066666667	0
bin	304.204	0
bin	304.23733333333	0
bin	304.27066666667	0
bin	304.304	0
bin	304.33733333333	0
bin	304.37066666667	0
bin	304.404	0
bin	304.43733333333	0
bin	304.47066666667	0
bin	304.504	0
bin	304.53733333333	0
bin	304.57066666667	0
bin	304.604	1
bin	304.63733333333	0
bin	304.67066666667	0
bin	304.704	0
bin	304.73733333333	0
bin	304.77066666667	0
bin	304.804	0
bin	304.83733333333	0
bin	304.87066666667	0
bin	304.904	0
bin	304.93733333333	0
bin	304.97066666667	0
bin	305.004	0
bin	305.03733333333	0
bin	305.07066666667	0
bin	305.104	0
statistic RandomGeometricGraph.rgnv[17] 	arrivalPerc:histogram
field count 1
field mean 1
field stddev nan
field sum 1
field sqrsum 1
field min 1
field max 1
attr interpolationmode  none
attr source  count(arrival)
attr title  "arrival perc, histogram"
bin	-INF	0
bin	0	0
bin	1	1
bin	2	0
statistic RandomGeometricGraph.rgnv[18] 	arrivalTime:histogram
field count 1
field mean 267.901
field stddev nan
field sum 267.901
field sqrsum 71770.945801
field min 267.901
field max 267.901
attr interpolationmode  none
attr source  arrivalTime
attr title  "arrival time, histogram"
bin	-INF	0
bin	267.401	0
bin	267.43433333333	0
bin	267.46766666667	0
bin	267.501	0
bin	267.53433333333	0
bin	267.56766666667	0
bin	267.601	0
bin	267.63433333333	0
bin	267.66766666667	0
bin	267.701	0
bin	267.73433333333	0
bin	267.76766666667	0
bin	267.801	0
bin	267.83433333333	0
bin	267.86766666667	0
bin	267.901	1
bin	267.93433333333	0
bin	267.96766666667	0
bin	268.001	0
bin	268.03433333333	0
bin	268.06766666667	0
bin	268.101	0
bin	268.13433333333	0
bin	268.16766666667	0
bin	268.201	0
bin	268.23433333333	0
bin	268.26766666667	0
bin	268.301	0
bin	268.33433333333	0
bin	268.36766666667	0
bin	268.401	0
statistic RandomGeometricGraph.rgnv[18] 	arrivalPerc:histogram
field count 1
field mean 1
field stddev nan
field sum 1
field sqrsum 1
field min 1
field max 1
attr interpolationmode  none
attr source  count(arrival)
attr title  "arrival perc, histogram"
bin	-INF	0
bin	0	0
bin	1	1
bin	2	0
statistic RandomGeometricGraph.rgnv[19] 	arrivalTime:histogram
field count 1
field mean 339.066
field stddev nan
field sum 339.066
field sqrsum 114965.752356
field min 339.066
field max 339.066
attr interpolationmode  none
attr source  arrivalTime
attr title  "arrival time, histogram"
bin	-INF	0
bin	338.566	0
bin	338.59933333333	0
bin	338.63266666667	0
bin	338.666	0
bin	338.69933333333	0
bin	338.73266666667	0
bin	338.766	0
bin	338.79933333333	0
bin	338.83266666667	0
bin	338.866	0
bin	338.89933333333	0
bin	338.93266666667	0
bin	338.966	0
bin	338.99933333333	0
bin	339.03266666667	0
bin	339.066	1
bin	339.09933333333	0
bin	339.13266666667	0
bin	339.166	0
bin	339.19933333333	0
bin	339.23266666667	0
bin	339.266	0
bin	339.29933333333	0
bin	339.33266666667	0
bin	339.366	0
bin	339.39933333333	0
bin	339.43266666667	0
bin	339.466	0
bin	339.49933333333	0
bin	339.53266666667	0
bin	339.566	0
statistic RandomGeometricGraph.rgnv[19] 	arrivalPerc:histogram
field count 1
field mean 1
field stddev nan
field sum 1
field sqrsum 1
field min 1
field max 1
attr interpolationmode  none
attr source  count(arrival)
attr title  "arrival perc, histogram"
bin	-INF	0
bin	0	0
bin	1	1
bin	2	0
statistic RandomGeometricGraph.rgnv[20] 	arrivalTime:histogram
field count 1
field mean 231.198
field stddev nan
field sum 231.198
field sqrsum 53452.515204
field min 231.198
field max 231.198
attr interpolationmode  none
attr source  arrivalTime
attr title  "arrival time, histogram"
bin	-INF	0
bin	230.698	0
bin	230.73133333333	0
bin	230.76466666667	0
bin	230.798	0
bin	230.83133333333	0
bin	230.86466666667	0
bin	230.898	0
bin	230.93133333333	0
bin	230.96466666667	0
bin	230.998	0
bin	231.03133333333	0
bin	231.06466666667	0
bin	231.098	0
bin	231.13133333333	0
bin	231.16466666667	0
bin	231.198	1
bin	231.23133333333	0
bin	231.26466666667	0
bin	231.298	0
bin	231.33133333333	0
bin	231.36466666667	0
bin	231.398	0
bin	231.43133333333	0
bin	231.46466666667	0
bin	231.498	0
bin	231.53133333333	0
bin	231.56466666667	0
bin	231.598	0
bin	231.63133333333	0
bin	231.66466666667	0
bin	231.698	0
statistic RandomGeometricGraph.rgnv[20] 	arrivalPerc:histogram
field count 1
field mean 1
field stddev nan
field sum 1
field sqrsum 1
field min 1
field max 1
attr interpolationmode  none
attr source  count(arrival)
attr title  "arrival perc, histogram"
bin	-INF	0
bin	0	0
bin	1	1
bin	2	0
statistic RandomGeometricGraph.rgnv[21] 	arrivalTime:histogram
field count 1
field mean 231.208
field stddev nan
field sum 231.208
field sqrsum 53457.139264
field min 231.208
field max 231.208
attr interpolationmode  none
attr source  arrivalTime
attr title  "arrival time, histogram"
bin	-INF	0
bin	230.708	0
bin	230.74133333333	0
bin	230.77466666667	0
bin	230.808	0
bin	230.84133333333	0
bin	230.87466666667	0
bin	230.908	0
bin	230.94133333333	0
bin	230.97466666667	0
bin	231.008	0
bin	231.04133333333	0
bin	231.07466666667	0
bin	231.108	0
bin	231.14133333333	0
bin	231.17466666667	0
bin	231.208	1
bin	231.24133333333	0
bin	231.27466666667	0
bin	231.308	0
bin	231.34133333333	0
bin	231.37466666667	0
bin	231.408	0
bin	231.44133333333	0
bin	231.47466666667	0
bin	231.508	0
bin	231.54133333333	0
bin	231.57466666667	0
bin	231.608	0
bin	231.64133333333	0
bin	231.67466666667	0
bin	231.708	0
statistic RandomGeometricGraph.rgnv[21] 	arrivalPerc:histogram
field count 1
field mean 1
field stddev nan
field sum 1
field sqrsum 1
field min 1
field max 1
attr interpolationmode  none
attr source  count(arrival)
attr title  "arrival perc, histogram"
bin	-INF	0
bin	0	0
bin	1	1
bin	2	0
statistic RandomGeometricGraph.rgnv[22] 	arrivalTime:histogram
field count 1
field mean 248.439
field stddev nan
field sum 248.439
field sqrsum 61721.936721
field min 248.439
field max 248.439
attr interpolationmode  none
attr source  arrivalTime
attr title  "arrival time, histogram"
bin	-INF	0
bin	247.939	0
bin	247.97233333333	0
bin	248.00566666667	0
bin	248.039	0
bin	248.07233333333	0
bin	248.10566666667	0
bin	248.139	0
bin	248.17233333333	0
bin	248.20566666667	0
bin	248.239	0
bin	248.27233333333	0
bin	248.30566666667	0
bin	248.339	0
bin	248.37233333333	0
bin	248.40566666667	0
bin	248.439	1
bin	248.47233333333	0
bin	248.50566666667	0
bin	248.539	0
bin	248.57233333333	0
bin	248.60566666667	0
bin	248.639	0
bin	248.67233333333	0
bin	248.70566666667	0
bin	248.739	0
bin	248.77233333333	0
bin	248.80566666667	0
bin	248.839	0
bin	248.87233333333	0
bin	248.90566666667	0
bin	248.939	0
statistic RandomGeometricGraph.rgnv[22] 	arrivalPerc:histogram
field count 1
field mean 1
field stddev nan
field sum 1
field sqrsum 1
field min 1
field max 1
attr interpolationmode  none
attr source  count(arrival)
attr title  "arrival perc, histogram"
bin	-INF	0
bin	0	0
bin	1	1
bin	2	0
statistic RandomGeometricGraph.rgnv[23] 	arrivalTime:histogram
field count 1
field mean 182.274
field stddev nan
field sum 182.274
field sqrsum 33223.811076
field min 182.274
field max 182.274
attr interpolationmode  none
attr source  arrivalTime
attr title  "arrival time, histogram"
bin	-INF	0
bin	181.774	0
bin	181.80733333333	0
bin	181.84066666667	0
bin	181.874	0
bin	181.90733333333	0
bin	181.94066666667	0
bin	181.974	0
bin	182.00733333333	0
bin	182.04066666667	0
bin	182.074	0
bin	182.10733333333	0
bin	182.14066666667	0
bin	182.174	0
bin	182.20733333333	0
bin	182.24066666667	0
bin	182.274	1
bin	182.30733333333	0
bin	182.34066666667	0
bin	182.374	0
bin	182.40733333333	0
bin	182.44066666667	0
bin	182.474	0
bin	182.50733333333	0
bin	182.54066666667	0
bin	182.574	0
bin	182.60733333333	0
bin	182.64066666667	0
bin	182.674	0
bin	182.70733333333	0
bin	182.74066666667	0
bin	182.774	0
statistic RandomGeometricGraph.rgnv[23] 	arrivalPerc:histogram
field count 1
field mean 1
field stddev nan
field sum 1
field sqrsum 1
field min 1
field max 1
attr interpolationmode  none
attr source  count(arrival)
attr title  "arrival perc, histogram"
bin	-INF	0
bin	0	0
bin	1	1
bin	2	0
statistic RandomGeometricGraph.rgnv[24] 	arrivalTime:histogram
field count 1
field mean 270.69
field stddev nan
field sum 270.69
field sqrsum 73273.0761
field min 270.69
field max 270.69
attr interpolationmode  none
attr source  arrivalTime
attr title  "arrival time, histogram"
bin	-INF	0
bin	270.19	0
bin	270.22333333333	0
bin	270.25666666667	0
bin	270.29	0
bin	270.32333333333	0
bin	270.35666666667	0
bin	270.39	0
bin	270.42333333333	0
bin	270.45666666667	0
bin	270.49	0
bin	270.52333333333	0
bin	270.55666666667	0
bin	270.59	0
bin	270.62333333333	0
bin	270.65666666667	0
bin	270.69	1
bin	270.72333333333	0
bin	270.75666666667	0
bin	270.79	0
bin	270.82333333333	0
bin	270.85666666667	0
bin	270.89	0
bin	270.92333333333	0
bin	270.95666666667	0
bin	270.99	0
bin	271.02333333333	0
bin	271.05666666667	0
bin	271.09	0
bin	271.12333333333	0
bin	271.15666666667	0
bin	271.19	0
statistic RandomGeometricGraph.rgnv[24] 	arrivalPerc:histogram
field count 1
field mean 1
field stddev nan
field sum 1
field sqrsum 1
field min 1
field max 1
attr interpolationmode  none
attr source  count(arrival)
attr title  "arrival perc, histogram"
bin	-INF	0
bin	0	0
bin	1	1
bin	2	0
statistic RandomGeometricGraph.rgnv[25] 	arrivalTime:histogram
field count 1
field mean 150.581
field stddev nan
field sum 150.581
field sqrsum 22674.637561
field min 150.581
field max 150.581
attr interpolationmode  none
attr source  arrivalTime
attr title  "arrival time, histogram"
bin	-INF	0
bin	150.081	0
bin	150.11433333333	0
bin	150.14766666667	0
bin	150.181	0
bin	150.21433333333	0
bin	150.24766666667	0
bin	150.281	0
bin	150.31433333333	0
bin	150.34766666667	0
bin	150.381	0
bin	150.41433333333	0
bin	150.44766666667	0
bin	150.481	0
bin	150.51433333333	0
bin	150.54766666667	0
bin	150.581	1
bin	150.61433333333	0
bin	150.64766666667	0
bin	150.681	0
bin	150.71433333333	0
bin	150.74766666667	0
bin	150.781	0
bin	150.81433333333	0
bin	150.84766666667	0
bin	150.881	0
bin	150.91433333333	0
bin	150.94766666667	0
bin	150.981	0
bin	151.01433333333	0
bin	151.04766666667	0
bin	151.081	0
statistic RandomGeometricGraph.rgnv[25] 	arrivalPerc:histogram
field count 1
field mean 1
field stddev nan
field sum 1
field sqrsum 1
field min 1
field max 1
attr interpolationmode  none
attr source  count(arrival)
attr title  "arrival perc, histogram"
bin	-INF	0
bin	0	0
bin	1	1
bin	2	0
statistic RandomGeometricGraph.rgnv[26] 	arrivalTime:histogram
field count 1
field mean 304.584
field stddev nan
field sum 304.584
field sqrsum 92771.413056
field min 304.584
field max 304.584
attr interpolationmode  none
attr source  arrivalTime
attr title  "arrival time, histogram"
bin	-INF	0
bin	304.084	0
bin	304.11733333333	0
bin	304.15066666667	0
bin	304.184	0
bin	304.21733333333	0
bin	304.25066666667	0
bin	304.284	0
bin	304.31733333333	0
bin	304.35066666667	0
bin	304.384	0
bin	304.41733333333	0
bin	304.45066666667	0
bin	304.484	0
bin	304.51733333333	0
bin	304.55066666667	0
bin	304.584	1
bin	304.61733333333	0
bin	304.65066666667	0
bin	304.684	0
bin	304.71733333333	0
bin	304.75066666667	0
bin	304.784	0
bin	304.81733333333	0
bin	304.85066666667	0
bin	304.884	0
bin	304.91733333333	0
bin	304.95066666667	0
bin	304.984	0
bin	305.01733333333	0
bin	305.05066666667	0
bin	305.084	0
statistic RandomGeometricGraph.rgnv[26] 	arrivalPerc:histogram
field count 1
field mean 1
field stddev nan
field sum 1
field sqrsum 1
field min 1
field max 1
attr interpolationmode  none
attr source  count(arrival)
attr title  "arrival perc, histogram"
bin	-INF	0
bin	0	0
bin	1	1
bin	2	0
statistic RandomGeometricGraph.rgnv[27] 	arrivalTime:histogram
field count 0
field mean nan
field stddev nan
field sum 0
field sqrsum 0
field min nan
field max nan
attr interpolationmode  none
attr source  arrivalTime
attr title  "arrival time, histogram"
bin	-INF	0
bin	-0.5	0
bin	-0.46666666666667	0
bin	-0.43333333333333	0
bin	-0.4	0
bin	-0.36666666666667	0
bin	-0.33333333333333	0
bin	-0.3	0
bin	-0.26666666666667	0
bin	-0.23333333333333	0
bin	-0.2	0
bin	-0.16666666666667	0
bin	-0.13333333333333	0
bin	-0.1	0
bin	-0.066666666666667	0
bin	-0.033333333333333	0
bin	0	0
bin	0.033333333333333	0
bin	0.066666666666667	0
bin	0.1	0
bin	0.13333333333333	0
bin	0.16666666666667	0
bin	0.2	0
bin	0.23333333333333	0
bin	0.26666666666667	0
bin	0.3	0
bin	0.33333333333333	0
bin	0.36666666666667	0
bin	0.4	0
bin	0.43333333333333	0
bin	0.46666666666667	0
bin	0.5	0
statistic RandomGeometricGraph.rgnv[27] 	arrivalPerc:histogram
field count 0
field mean nan
field stddev nan
field sum 0
field sqrsum 0
field min nan
field max nan
attr interpolationmode  none
attr source  count(arrival)
attr title  "arrival perc, histogram"
bin	-INF	0
bin	-0.5	0
bin	-0.46666666666667	0
bin	-0.43333333333333	0
bin	-0.4	0
bin	-0.36666666666667	0
bin	-0.33333333333333	0
bin	-0.3	0
bin	-0.26666666666667	0
bin	-0.23333333333333	0
bin	-0.2	0
bin	-0.16666666666667	0
bin	-0.13333333333333	0
bin	-0.1	0
bin	-0.066666666666667	0
bin	-0.033333333333333	0
bin	0	0
bin	0.033333333333333	0
bin	0.066666666666667	0
bin	0.1	0
bin	0.13333333333333	0
bin	0.16666666666667	0
bin	0.2	0
bin	0.23333333333333	0
bin	0.26666666666667	0
bin	0.3	0
bin	0.33333333333333	0
bin	0.36666666666667	0
bin	0.4	0
bin	0.43333333333333	0
bin	0.46666666666667	0
bin	0.5	0
statistic RandomGeometricGraph.rgnv[28] 	arrivalTime:histogram
field count 1
field mean 140.561
field stddev nan
field sum 140.561
field sqrsum 19757.394721
field min 140.561
field max 140.561
attr interpolationmode  none
attr source  arrivalTime
attr title  "arrival time, histogram"
bin	-INF	0
bin	140.061	0
bin	140.09433333333	0
bin	140.12766666667	0
bin	140.161	0
bin	140.19433333333	0
bin	140.22766666667	0
bin	140.261	0
bin	140.29433333333	0
bin	140.32766666667	0
bin	140.361	0
bin	140.39433333333	0
bin	140.42766666667	0
bin	140.461	0
bin	140.49433333333	0
bin	140.52766666667	0
bin	140.561	1
bin	140.59433333333	0
bin	140.62766666667	0
bin	140.661	0
bin	140.69433333333	0
bin	140.72766666667	0
bin	140.761	0
bin	140.79433333333	0
bin	140.82766666667	0
bin	140.861	0
bin	140.89433333333	0
bin	140.92766666667	0
bin	140.961	0
bin	140.99433333333	0
bin	141.02766666667	0
bin	141.061	0
statistic RandomGeometricGraph.rgnv[28] 	arrivalPerc:histogram
field count 1
field mean 1
field stddev nan
field sum 1
field sqrsum 1
field min 1
field max 1
attr interpolationmode  none
attr source  count(arrival)
attr title  "arrival perc, histogram"
bin	-INF	0
bin	0	0
bin	1	1
bin	2	0
statistic RandomGeometricGraph.rgnv[29] 	arrivalTime:histogram
field count 1
field mean 157.802
field stddev nan
field sum 157.802
field sqrsum 24901.471204
field min 157.802
field max 157.802
attr interpolationmode  none
attr source  arrivalTime
attr title  "arrival time, histogram"
bin	-INF	0
bin	157.302	0
bin	157.33533333333	0
bin	157.36866666667	0
bin	157.402	0
bin	157.43533333333	0
bin	157.46866666667	0
bin	157.502	0
bin	157.53533333333	0
bin	157.56866666667	0
bin	157.602	0
bin	157.63533333333	0
bin	157.66866666667	0
bin	157.702	0
bin	157.73533333333	0
bin	157.76866666667	0
bin	157.802	1
bin	157.83533333333	0
bin	157.86866666667	0
bin	157.902	0
bin	157.93533333333	0
bin	157.96866666667	0
bin	158.002	0
bin	158.03533333333	0
bin	158.06866666667	0
bin	158.102	0
bin	158.13533333333	0
bin	158.16866666667	0
bin	158.202	0
bin	158.23533333333	0
bin	158.26866666667	0
bin	158.302	0
statistic RandomGeometricGraph.rgnv[29] 	arrivalPerc:histogram
field count 1
field mean 1
field stddev nan
field sum 1
field sqrsum 1
field min 1
field max 1
attr interpolationmode  none
attr source  count(arrival)
attr title  "arrival perc, histogram"
bin	-INF	0
bin	0	0
bin	1	1
bin	2	0
statistic RandomGeometricGraph.rgnv[30] 	arrivalTime:histogram
field count 1
field mean 231.208
field stddev nan
field sum 231.208
field sqrsum 53457.139264
field min 231.208
field max 231.208
attr interpolationmode  none
attr source  arrivalTime
attr title  "arrival time, histogram"
bin	-INF	0
bin	230.708	0
bin	230.74133333333	0
bin	230.77466666667	0
bin	230.808	0
bin	230.84133333333	0
bin	230.87466666667	0
bin	230.908	0
bin	230.94133333333	0
bin	230.97466666667	0
bin	231.008	0
bin	231.04133333333	0
bin	231.07466666667	0
bin	231.108	0
bin	231.14133333333	0
bin	231.17466666667	0
bin	231.208	1
bin	231.24133333333	0
bin	231.27466666667	0
bin	231.308	0
bin	231.34133333333	0
bin	231.37466666667	0
bin	231.408	0
bin	231.44133333333	0
bin	231.47466666667	0
bin	231.508	0
bin	231.54133333333	0
bin	231.57466666667	0
bin	231.608	0
bin	231.64133333333	0
bin	231.67466666667	0
bin	231.708	0
statistic RandomGeometricGraph.rgnv[30] 	arrivalPerc:histogram
field count 1
field mean 1
field stddev nan
field sum 1
field sqrsum 1
field min 1
field max 1
attr interpolationmode  none
attr source  count(arrival)
attr title  "arrival perc, histogram"
bin	-INF	0
bin	0	0
bin	1	1
bin	2	0
statistic RandomGeometricGraph.rgnv[31] 	arrivalTime:histogram
field count 1
field mean 218.987
field stddev nan
field sum 218.987
field sqrsum 47955.306169
field min 218.987
field max 218.987
attr interpolationmode  none
attr source  arrivalTime
attr title  "arrival time, histogram"
bin	-INF	0
bin	218.487	0
bin	218.52033333333	0
bin	218.55366666667	0
bin	218.587	0
bin	218.62033333333	0
bin	218.65366666667	0
bin	218.687	0
bin	218.72033333333	0
bin	218.75366666667	0
bin	218.787	0
bin	218.82033333333	0
bin	218.85366666667	0
bin	218.887	0
bin	218.92033333333	0
bin	218.95366666667	0
bin	218.987	1
bin	219.02033333333	0
bin	219.05366666667	0
bin	219.087	0
bin	219.12033333333	0
bin	219.15366666667	0
bin	219.187	0
bin	219.22033333333	0
bin	219.25366666667	0
bin	219.287	0
bin	219.32033333333	0
bin	219.35366666667	0
bin	219.387	0
bin	219.42033333333	0
bin	219.45366666667	0
bin	219.487	0
statistic RandomGeometricGraph.rgnv[31] 	arrivalPerc:histogram
field count 1
field mean 1
field stddev nan
field sum 1
field sqrsum 1
field min 1
field max 1
attr interpolationmode  none
attr source  count(arrival)
attr title  "arrival perc, histogram"
bin	-INF	0
bin	0	0
bin	1	1
bin	2	0
statistic RandomGeometricGraph.rgnv[32] 	arrivalTime:histogram
field count 1
field mean 223.987
field stddev nan
field sum 223.987
field sqrsum 50170.176169
field min 223.987
field max 223.987
attr interpolationmode  none
attr source  arrivalTime
attr title  "arrival time, histogram"
bin	-INF	0
bin	223.487	0
bin	223.52033333333	0
bin	223.55366666667	0
bin	223.587	0
bin	223.62033333333	0
bin	223.65366666667	0
bin	223.687	0
bin	223.72033333333	0
bin	223.75366666667	0
bin	223.787	0
bin	223.82033333333	0
bin	223.85366666667	0
bin	223.887	0
bin	223.92033333333	0
bin	223.95366666667	0
bin	223.987	1
bin	224.02033333333	0
bin	224.05366666667	0
bin	224.087	0
bin	224.12033333333	0
bin	224.15366666667	0
bin	224.187	0
bin	224.22033333333	0
bin	224.25366666667	0
bin	224.287	0
bin	224.32033333333	0
bin	224.35366666667	0
bin	224.387	0
bin	224.42033333333	0
bin	224.45366666667	0
bin	224.487	0
statistic RandomGeometricGraph.rgnv[32] 	arrivalPerc:histogram
field count 1
field mean 1
field stddev nan
field sum 1
field sqrsum 1
field min 1
field max 1
attr interpolationmode  none
attr source  count(arrival)
attr title  "arrival perc, histogram"
bin	-INF	0
bin	0	0
bin	1	1
bin	2	0
statistic RandomGeometricGraph.rgnv[33] 	arrivalTime:histogram
field count 1
field mean 25.462
field stddev nan
field sum 25.462
field sqrsum 648.313444
field min 25.462
field max 25.462
attr interpolationmode  none
attr source  arrivalTime
attr title  "arrival time, histogram"
bin	-INF	0
bin	24.962	0
bin	24.995333333333	0
bin	25.028666666667	0
bin	25.062	0
bin	25.095333333333	0
bin	25.128666666667	0
bin	25.162	0
bin	25.195333333333	0
bin	25.228666666667	0
bin	25.262	0
bin	25.295333333333	0
bin	25.328666666667	0
bin	25.362	0
bin	25.395333333333	0
bin	25.428666666667	0
bin	25.462	1
bin	25.495333333333	0
bin	25.528666666667	0
bin	25.562	0
bin	25.595333333333	0
bin	25.628666666667	0
bin	25.662	0
bin	25.695333333333	0
bin	25.728666666667	0
bin	25.762	0
bin	25.795333333333	0
bin	25.828666666667	0
bin	25.862	0
bin	25.895333333333	0
bin	25.928666666667	0
bin	25.962	0
statistic RandomGeometricGraph.rgnv[33] 	arrivalPerc:histogram
field count 1
field mean 1
field stddev nan
field sum 1
field sqrsum 1
field min 1
field max 1
attr interpolationmode  none
attr source  count(arrival)
attr title  "arrival perc, histogram"
bin	-INF	0
bin	0	0
bin	1	1
bin	2	0
statistic RandomGeometricGraph.rgnv[34] 	arrivalTime:histogram
field count 1
field mean 216.756
field stddev nan
field sum 216.756
field sqrsum 46983.163536
field min 216.756
field max 216.756
attr interpolationmode  none
attr source  arrivalTime
attr title  "arrival time, histogram"
bin	-INF	0
bin	216.256	0
bin	216.28933333333	0
bin	216.32266666667	0
bin	216.356	0
bin	216.38933333333	0
bin	216.42266666667	0
bin	216.456	0
bin	216.48933333333	0
bin	216.52266666667	0
bin	216.556	0
bin	216.58933333333	0
bin	216.62266666667	0
bin	216.656	0
bin	216.68933333333	0
bin	216.72266666667	0
bin	216.756	1
bin	216.78933333333	0
bin	216.82266666667	0
bin	216.856	0
bin	216.88933333333	0
bin	216.92266666667	0
bin	216.956	0
bin	216.98933333333	0
bin	217.02266666667	0
bin	217.056	0
bin	217.08933333333	0
bin	217.12266666667	0
bin	217.156	0
bin	217.18933333333	0
bin	217.22266666667	0
bin	217.256	0
statistic RandomGeometricGraph.rgnv[34] 	arrivalPerc:histogram
field count 1
field mean 1
field stddev nan
field sum 1
field sqrsum 1
field min 1
field max 1
attr interpolationmode  none
attr source  count(arrival)
attr title  "arrival perc, histogram"
bin	-INF	0
bin	0	0
bin	1	1
bin	2	0
statistic RandomGeometricGraph.rgnv[35] 	arrivalTime:histogram
field count 1
field mean 236.208
field stddev nan
field sum 236.208
field sqrsum 55794.219264
field min 236.208
field max 236.208
attr interpolationmode  none
attr source  arrivalTime
attr title  "arrival time, histogram"
bin	-INF	0
bin	235.708	0
bin	235.74133333333	0
bin	235.77466666667	0
bin	235.808	0
bin	235.84133333333	0
bin	235.87466666667	0
bin	235.908	0
bin	235.94133333333	0
bin	235.97466666667	0
bin	236.008	0
bin	236.04133333333	0
bin	236.07466666667	0
bin	236.108	0
bin	236.14133333333	0
bin	236.17466666667	0
bin	236.208	1
bin	236.24133333333	0
bin	236.27466666667	0
bin	236.308	0
bin	236.34133333333	0
bin	236.37466666667	0
bin	236.408	0
bin	236.44133333333	0
bin	236.47466666667	0
bin	236.508	0
bin	236.54133333333	0
bin	236.57466666667	0
bin	236.608	0
bin	236.64133333333	0
bin	236.67466666667	0
bin	236.708	0
statistic RandomGeometricGraph.rgnv[35] 	arrivalPerc:histogram
field count 1
field mean 1
field stddev nan
field sum 1
field sqrsum 1
field min 1
field max 1
attr interpolationmode  none
attr source  count(arrival)
attr title  "arrival perc, histogram"
bin	-INF	0
bin	0	0
bin	1	1
bin	2	0
statistic RandomGeometricGraph.rgnv[36] 	arrivalTime:histogram
field count 1
field mean 223.977
field stddev nan
field sum 223.977
field sqrsum 50165.696529
field min 223.977
field max 223.977
attr interpolationmode  none
attr source  arrivalTime
attr title  "arrival time, histogram"
bin	-INF	0
bin	223.477	0
bin	223.51033333333	0
bin	223.54366666667	0
bin	223.577	0
bin	223.61033333333	0
bin	223.64366666667	0
bin	223.677	0
bin	223.71033333333	0
bin	223.74366666667	0
bin	223.777	0
bin	223.81033333333	0
bin	223.84366666667	0
bin	223.877	0
bin	223.91033333333	0
bin	223.94366666667	0
bin	223.977	1
bin	224.01033333333	0
bin	224.04366666667	0
bin	224.077	0
bin	224.11033333333	0
bin	224.14366666667	0
bin	224.177	0
bin	224.21033333333	0
bin	224.24366666667	0
bin	224.277	0
bin	224.31033333333	0
bin	224.34366666667	0
bin	224.377	0
bin	224.41033333333	0
bin	224.44366666667	0
bin	224.477	0
statistic RandomGeometricGraph.rgnv[36] 	arrivalPerc:histogram
field count 1
field mean 1
field stddev nan
field sum 1
field sqrsum 1
field min 1
field max 1
attr interpolationmode  none
attr source  count(arrival)
attr title  "arrival perc, histogram"
bin	-INF	0
bin	0	0
bin	1	1
bin	2	0
statistic RandomGeometricGraph.rgnv[37] 	arrivalTime:histogram
field count 1
field mean 280.122
field stddev nan
field sum 280.122
field sqrsum 78468.334884
field min 280.122
field max 280.122
attr interpolationmode  none
attr source  arrivalTime
attr title  "arrival time, histogram"
bin	-INF	0
bin	279.622	0
bin	279.65533333333	0
bin	279.68866666667	0
bin	279.722	0
bin	279.75533333333	0
bin	279.78866666667	0
bin	279.822	0
bin	279.85533333333	0
bin	279.88866666667	0
bin	279.922	0
bin	279.95533333333	0
bin	279.98866666667	0
bin	280.022	0
bin	280.05533333333	0
bin	280.08866666667	0
bin	280.122	1
bin	280.15533333333	0
bin	280.18866666667	0
bin	280.222	0
bin	280.25533333333	0
bin	280.28866666667	0
bin	280.322	0
bin	280.35533333333	0
bin	280.38866666667	0
bin	280.422	0
bin	280.45533333333	0
bin	280.48866666667	0
bin	280.522	0
bin	280.55533333333	0
bin	280.58866666667	0
bin	280.622	0
statistic RandomGeometricGraph.rgnv[37] 	arrivalPerc:histogram
field count 1
field mean 1
field stddev nan
field sum 1
field sqrsum 1
field min 1
field max 1
attr interpolationmode  none
attr source  count(arrival)
attr title  "arrival perc, histogram"
bin	-INF	0
bin	0	0
bin	1	1
bin	2	0
statistic RandomGeometricGraph.rgnv[38] 	arrivalTime:histogram
field count 1
field mean 267.901
field stddev nan
field sum 267.901
field sqrsum 71770.945801
field min 267.901
field max 267.901
attr interpolationmode  none
attr source  arrivalTime
attr title  "arrival time, histogram"
bin	-INF	0
bin	267.401	0
bin	267.43433333333	0
bin	267.46766666667	0
bin	267.501	0
bin	267.53433333333	0
bin	267.56766666667	0
bin	267.601	0
bin	267.63433333333	0
bin	267.66766666667	0
bin	267.701	0
bin	267.73433333333	0
bin	267.76766666667	0
bin	267.801	0
bin	267.83433333333	0
bin	267.86766666667	0
bin	267.901	1
bin	267.93433333333	0
bin	267.96766666667	0
bin	268.001	0
bin	268.03433333333	0
bin	268.06766666667	0
bin	268.101	0
bin	268.13433333333	0
bin	268.16766666667	0
bin	268.201	0
bin	268.23433333333	0
bin	268.26766666667	0
bin	268.301	0
bin	268.33433333333	0
bin	268.36766666667	0
bin	268.401	0
statistic RandomGeometricGraph.rgnv[38] 	arrivalPerc:histogram
field count 1
field mean 1
field stddev nan
field sum 1
field sqrsum 1
field min 1
field max 1
attr interpolationmode  none
attr source  count(arrival)
attr title  "arrival perc, histogram"
bin	-INF	0
bin	0	0
bin	1	1
bin	2	0
statistic RandomGeometricGraph.rgnv[39] 	arrivalTime:histogram
field count 1
field mean 145.571
field stddev nan
field sum 145.571
field sqrsum 21190.916041
field min 145.571
field max 145.571
attr interpolationmode  none
attr source  arrivalTime
attr title  "arrival time, histogram"
bin	-INF	0
bin	145.071	0
bin	145.10433333333	0
bin	145.13766666667	0
bin	145.171	0
bin	145.20433333333	0
bin	145.23766666667	0
bin	145.271	0
bin	145.30433333333	0
bin	145.33766666667	0
bin	145.371	0
bin	145.40433333333	0
bin	145.43766666667	0
bin	145.471	0
bin	145.50433333333	0
bin	145.53766666667	0
bin	145.571	1
bin	145.60433333333	0
bin	145.63766666667	0
bin	145.671	0
bin	145.70433333333	0
bin	145.73766666667	0
bin	145.771	0
bin	145.80433333333	0
bin	145.83766666667	0
bin	145.871	0
bin	145.90433333333	0
bin	145.93766666667	0
bin	145.971	0
bin	146.00433333333	0
bin	146.03766666667	0
bin	146.071	0
statistic RandomGeometricGraph.rgnv[39] 	arrivalPerc:histogram
field count 1
field mean 1
field stddev nan
field sum 1
field sqrsum 1
field min 1
field max 1
attr interpolationmode  none
attr source  count(arrival)
attr title  "arrival perc, histogram"
bin	-INF	0
bin	0	0
bin	1	1
bin	2	0
statistic RandomGeometricGraph.rgnv[40] 	arrivalTime:histogram
field count 0
field mean nan
field stddev nan
field sum 0
field sqrsum 0
field min nan
field max nan
attr interpolationmode  none
attr source  arrivalTime
attr title  "arrival time, histogram"
bin	-INF	0
bin	-0.5	0
bin	-0.46666666666667	0
bin	-0.43333333333333	0
bin	-0.4	0
bin	-0.36666666666667	0
bin	-0.33333333333333	0
bin	-0.3	0
bin	-0.26666666666667	0
bin	-0.23333333333333	0
bin	-0.2	0
bin	-0.16666666666667	0
bin	-0.13333333333333	0
bin	-0.1	0
bin	-0.066666666666667	0
bin	-0.033333333333333	0
bin	0	0
bin	0.033333333333333	0
bin	0.066666666666667	0
bin	0.1	0
bin	0.13333333333333	0
bin	0.16666666666667	0
bin	0.2	0
bin	0.23333333333333	0
bin	0.26666666666667	0
bin	0.3	0
bin	0.33333333333333	0
bin	0.36666666666667	0
bin	0.4	0
bin	0.43333333333333	0
bin	0.46666666666667	0
bin	0.5	0
statistic RandomGeometricGraph.rgnv[40] 	arrivalPerc:histogram
field count 0
field mean nan
field stddev nan
field sum 0
field sqrsum 0
field min nan
field max nan
attr interpolationmode  none
attr source  count(arrival)
attr title  "arrival perc, histogram"
bin	-INF	0
bin	-0.5	0
bin	-0.46666666666667	0
bin	-0.43333333333333	0
bin	-0.4	0
bin	-0.36666666666667	0
bin	-0.33333333333333	0
bin	-0.3	0
bin	-0.26666666666667	0
bin	-0.23333333333333	0
bin	-0.2	0
bin	-0.16666666666667	0
bin	-0.13333333333333	0
bin	-0.1	0
bin	-0.066666666666667	0
bin	-0.033333333333333	0
bin	0	0
bin	0.033333333333333	0
bin	0.066666666666667	0
bin	0.1	0
bin	0.13333333333333	0
bin	0.16666666666667	0
bin	0.2	0
bin	0.23333333333333	0
bin	0.26666666666667	0
bin	0.3	0
bin	0.33333333333333	0
bin	0.36666666666667	0
bin	0.4	0
bin	0.43333333333333	0
bin	0.46666666666667	0
bin	0.5	0
statistic RandomGeometricGraph.rgnv[41] 	arrivalTime:histogram
field count 1
field mean 280.132
field stddev nan
field sum 280.132
field sqrsum 78473.937424
field min 280.132
field max 280.132
attr interpolationmode  none
attr source  arrivalTime
attr title  "arrival time, histogram"
bin	-INF	0
bin	279.632	0
bin	279.66533333333	0
bin	279.69866666667	0
bin	279.732	0
bin	279.76533333333	0
bin	279.79866666667	0
bin	279.832	0
bin	279.86533333333	0
bin	279.89866666667	0
bin	279.932	0
bin	279.96533333333	0
bin	279.99866666667	0
bin	280.032	0
bin	280.06533333333	0
bin	280.09866666667	0
bin	280.132	1
bin	280.16533333333	0
bin	280.19866666667	0
bin	280.232	0
bin	280.26533333333	0
bin	280.29866666667	0
bin	280.332	0
bin	280.36533333333	0
bin	280.39866666667	0
bin	280.432	0
bin	280.46533333333	0
bin	280.49866666667	0
bin	280.532	0
bin	280.56533333333	0
bin	280.59866666667	0
bin	280.632	0
statistic RandomGeometricGraph.rgnv[41] 	arrivalPerc:histogram
field count 1
field mean 1
field stddev nan
field sum 1
field sqrsum 1
field min 1
field max 1
attr interpolationmode  none
attr source  count(arrival)
attr title  "arrival perc, histogram"
bin	-INF	0
bin	0	0
bin	1	1
bin	2	0
statistic RandomGeometricGraph.rgnv[42] 	arrivalTime:histogram
field count 1
field mean 37.693
field stddev nan
field sum 37.693
field sqrsum 1420.762249
field min 37.693
field max 37.693
attr interpolationmode  none
attr source  arrivalTime
attr title  "arrival time, histogram"
bin	-INF	0
bin	37.193	0
bin	37.226333333333	0
bin	37.259666666667	0
bin	37.293	0
bin	37.326333333333	0
bin	37.359666666667	0
bin	37.393	0
bin	37.426333333333	0
bin	37.459666666667	0
bin	37.493	0
bin	37.526333333333	0
bin	37.559666666667	0
bin	37.593	0
bin	37.626333333333	0
bin	37.659666666667	0
bin	37.693	1
bin	37.726333333333	0
bin	37.759666666667	0
bin	37.793	0
bin	37.826333333333	0
bin	37.859666666667	0
bin	37.893	0
bin	37.926333333333	0
bin	37.959666666667	0
bin	37.993	0
bin	38.026333333333	0
bin	38.059666666667	0
bin	38.093	0
bin	38.126333333333	0
bin	38.159666666667	0
bin	38.193	0
statistic RandomGeometricGraph.rgnv[42] 	arrivalPerc:histogram
field count 1
field mean 1
field stddev nan
field sum 1
field sqrsum 1
field min 1
field max 1
attr interpolationmode  none
attr source  count(arrival)
attr title  "arrival perc, histogram"
bin	-INF	0
bin	0	0
bin	1	1
bin	2	0
statistic RandomGeometricGraph.rgnv[43] 	arrivalTime:histogram
field count 1
field mean 285.142
field stddev nan
field sum 285.142
field sqrsum 81305.960164
field min 285.142
field max 285.142
attr interpolationmode  none
attr source  arrivalTime
attr title  "arrival time, histogram"
bin	-INF	0
bin	284.642	0
bin	284.67533333333	0
bin	284.70866666667	0
bin	284.742	0
bin	284.77533333333	0
bin	284.80866666667	0
bin	284.842	0
bin	284.87533333333	0
bin	284.90866666667	0
bin	284.942	0
bin	284.97533333333	0
bin	285.00866666667	0
bin	285.042	0
bin	285.07533333333	0
bin	285.10866666667	0
bin	285.142	1
bin	285.17533333333	0
bin	285.20866666667	0
bin	285.242	0
bin	285.27533333333	0
bin	285.30866666667	0
bin	285.342	0
bin	285.37533333333	0
bin	285.40866666667	0
bin	285.442	0
bin	285.47533333333	0
bin	285.50866666667	0
bin	285.542	0
bin	285.57533333333	0
bin	285.60866666667	0
bin	285.642	0
statistic RandomGeometricGraph.rgnv[43] 	arrivalPerc:histogram
field count 1
field mean 1
field stddev nan
field sum 1
field sqrsum 1
field min 1
field max 1
attr interpolationmode  none
attr source  count(arrival)
attr title  "arrival perc, histogram"
bin	-INF	0
bin	0	0
bin	1	1
bin	2	0
statistic RandomGeometricGraph.rgnv[44] 	arrivalTime:histogram
field count 1
field mean 243.439
field stddev nan
field sum 243.439
field sqrsum 59262.546721
field min 243.439
field max 243.439
attr interpolationmode  none
attr source  arrivalTime
attr title  "arrival time, histogram"
bin	-INF	0
bin	242.939	0
bin	242.97233333333	0
bin	243.00566666667	0
bin	243.039	0
bin	243.07233333333	0
bin	243.10566666667	0
bin	243.139	0
bin	243.17233333333	0
bin	243.20566666667	0
bin	243.239	0
bin	243.27233333333	0
bin	243.30566666667	0
bin	243.339	0
bin	243.37233333333	0
bin	243.40566666667	0
bin	243.439	1
bin	243.47233333333	0
bin	243.50566666667	0
bin	243.539	0
bin	243.57233333333	0
bin	243.60566666667	0
bin	243.639	0
bin	243.67233333333	0
bin	243.70566666667	0
bin	243.739	0
bin	243.77233333333	0
bin	243.80566666667	0
bin	243.839	0
bin	243.87233333333	0
bin	243.90566666667	0
bin	243.939	0
statistic RandomGeometricGraph.rgnv[44] 	arrivalPerc:histogram
field count 1
field mean 1
field stddev nan
field sum 1
field sqrsum 1
field min 1
field max 1
attr interpolationmode  none
attr source  count(arrival)
attr title  "arrival perc, histogram"
bin	-INF	0
bin	0	0
bin	1	1
bin	2	0
statistic RandomGeometricGraph.rgnv[45] 	arrivalTime:histogram
field count 1
field mean 67.175
field stddev nan
field sum 67.175
field sqrsum 4512.480625
field min 67.175
field max 67.175
attr interpolationmode  none
attr source  arrivalTime
attr title  "arrival time, histogram"
bin	-INF	0
bin	66.675	0
bin	66.708333333333	0
bin	66.741666666667	0
bin	66.775	0
bin	66.808333333333	0
bin	66.841666666667	0
bin	66.875	0
bin	66.908333333333	0
bin	66.941666666667	0
bin	66.975	0
bin	67.008333333333	0
bin	67.041666666667	0
bin	67.075	0
bin	67.108333333333	0
bin	67.141666666667	0
bin	67.175	1
bin	67.208333333333	0
bin	67.241666666667	0
bin	67.275	0
bin	67.308333333333	0
bin	67.341666666667	0
bin	67.375	0
bin	67.408333333333	0
bin	67.441666666667	0
bin	67.475	0
bin	67.508333333333	0
bin	67.541666666667	0
bin	67.575	0
bin	67.608333333333	0
bin	67.641666666667	0
bin	67.675	0
statistic RandomGeometricGraph.rgnv[45] 	arrivalPerc:histogram
field count 1
field mean 1
field stddev nan
field sum 1
field sqrsum 1
field min 1
field max 1
attr interpolationmode  none
attr source  count(arrival)
attr title  "arrival perc, histogram"
bin	-INF	0
bin	0	0
bin	1	1
bin	2	0
statistic RandomGeometricGraph.rgnv[46] 	arrivalTime:histogram
field count 1
field mean 113.888
field stddev nan
field sum 113.888
field sqrsum 12970.476544
field min 113.888
field max 113.888
attr interpolationmode  none
attr source  arrivalTime
attr title  "arrival time, histogram"
bin	-INF	0
bin	113.388	0
bin	113.42133333333	0
bin	113.45466666667	0
bin	113.488	0
bin	113.52133333333	0
bin	113.55466666667	0
bin	113.588	0
bin	113.62133333333	0
bin	113.65466666667	0
bin	113.688	0
bin	113.72133333333	0
bin	113.75466666667	0
bin	113.788	0
bin	113.82133333333	0
bin	113.85466666667	0
bin	113.888	1
bin	113.92133333333	0
bin	113.95466666667	0
bin	113.988	0
bin	114.02133333333	0
bin	114.05466666667	0
bin	114.088	0
bin	114.12133333333	0
bin	114.15466666667	0
bin	114.188	0
bin	114.22133333333	0
bin	114.25466666667	0
bin	114.288	0
bin	114.32133333333	0
bin	114.35466666667	0
bin	114.388	0
statistic RandomGeometricGraph.rgnv[46] 	arrivalPerc:histogram
field count 1
field mean 1
field stddev nan
field sum 1
field sqrsum 1
field min 1
field max 1
attr interpolationmode  none
attr source  count(arrival)
attr title  "arrival perc, histogram"
bin	-INF	0
bin	0	0
bin	1	1
bin	2	0
statistic RandomGeometricGraph.rgnv[47] 	arrivalTime:histogram
field count 1
field mean 194.505
field stddev nan
field sum 194.505
field sqrsum 37832.195025
field min 194.505
field max 194.505
attr interpolationmode  none
attr source  arrivalTime
attr title  "arrival time, histogram"
bin	-INF	0
bin	194.005	0
bin	194.03833333333	0
bin	194.07166666667	0
bin	194.105	0
bin	194.13833333333	0
bin	194.17166666667	0
bin	194.205	0
bin	194.23833333333	0
bin	194.27166666667	0
bin	194.305	0
bin	194.33833333333	0
bin	194.37166666667	0
bin	194.405	0
bin	194.43833333333	0
bin	194.47166666667	0
bin	194.505	1
bin	194.53833333333	0
bin	194.57166666667	0
bin	194.605	0
bin	194.63833333333	0
bin	194.67166666667	0
bin	194.705	0
bin	194.73833333333	0
bin	194.77166666667	0
bin	194.805	0
bin	194.83833333333	0
bin	194.87166666667	0
bin	194.905	0
bin	194.93833333333	0
bin	194.97166666667	0
bin	195.005	0
statistic RandomGeometricGraph.rgnv[47] 	arrivalPerc:histogram
field count 1
field mean 1
field stddev nan
field sum 1
field sqrsum 1
field min 1
field max 1
attr interpolationmode  none
attr source  count(arrival)
attr title  "arrival perc, histogram"
bin	-INF	0
bin	0	0
bin	1	1
bin	2	0
statistic RandomGeometricGraph.rgnv[48] 	arrivalTime:histogram
field count 1
field mean 170.053
field stddev nan
field sum 170.053
field sqrsum 28918.022809
field min 170.053
field max 170.053
attr interpolationmode  none
attr source  arrivalTime
attr title  "arrival time, histogram"
bin	-INF	0
bin	169.553	0
bin	169.58633333333	0
bin	169.61966666667	0
bin	169.653	0
bin	169.68633333333	0
bin	169.71966666667	0
bin	169.753	0
bin	169.78633333333	0
bin	169.81966666667	0
bin	169.853	0
bin	169.88633333333	0
bin	169.91966666667	0
bin	169.953	0
bin	169.98633333333	0
bin	170.01966666667	0
bin	170.053	1
bin	170.08633333333	0
bin	170.11966666667	0
bin	170.153	0
bin	170.18633333333	0
bin	170.21966666667	0
bin	170.253	0
bin	170.28633333333	0
bin	170.31966666667	0
bin	170.353	0
bin	170.38633333333	0
bin	170.41966666667	0
bin	170.453	0
bin	170.48633333333	0
bin	170.51966666667	0
bin	170.553	0
statistic RandomGeometricGraph.rgnv[48] 	arrivalPerc:histogram
field count 1
field mean 1
field stddev nan
field sum 1
field sqrsum 1
field min 1
field max 1
attr interpolationmode  none
attr source  count(arrival)
attr title  "arrival perc, histogram"
bin	-INF	0
bin	0	0
bin	1	1
bin	2	0
statistic RandomGeometricGraph.rgnv[49] 	arrivalTime:histogram
field count 1
field mean 187.284
field stddev nan
field sum 187.284
field sqrsum 35075.296656
field min 187.284
field max 187.284
attr interpolationmode  none
attr source  arrivalTime
attr title  "arrival time, histogram"
bin	-INF	0
bin	186.784	0
bin	186.81733333333	0
bin	186.85066666667	0
bin	186.884	0
bin	186.91733333333	0
bin	186.95066666667	0
bin	186.984	0
bin	187.01733333333	0
bin	187.05066666667	0
bin	187.084	0
bin	187.11733333333	0
bin	187.15066666667	0
bin	187.184	0
bin	187.21733333333	0
bin	187.25066666667	0
bin	187.284	1
bin	187.31733333333	0
bin	187.35066666667	0
bin	187.384	0
bin	187.41733333333	0
bin	187.45066666667	0
bin	187.484	0
bin	187.51733333333	0
bin	187.55066666667	0
bin	187.584	0
bin	187.61733333333	0
bin	187.65066666667	0
bin	187.684	0
bin	187.71733333333	0
bin	187.75066666667	0
bin	187.784	0
statistic RandomGeometricGraph.rgnv[49] 	arrivalPerc:histogram
field count 1
field mean 1
field stddev nan
field sum 1
field sqrsum 1
field min 1
field max 1
attr interpolationmode  none
attr source  count(arrival)
attr title  "arrival perc, histogram"
bin	-INF	0
bin	0	0
bin	1	1
bin	2	0
statistic RandomGeometricGraph.rgnv[50] 	arrivalTime:histogram
field count 1
field mean 145.571
field stddev nan
field sum 145.571
field sqrsum 21190.916041
field min 145.571
field max 145.571
attr interpolationmode  none
attr source  arrivalTime
attr title  "arrival time, histogram"
bin	-INF	0
bin	145.071	0
bin	145.10433333333	0
bin	145.13766666667	0
bin	145.171	0
bin	145.20433333333	0
bin	145.23766666667	0
bin	145.271	0
bin	145.30433333333	0
bin	145.33766666667	0
bin	145.371	0
bin	145.40433333333	0
bin	145.43766666667	0
bin	145.471	0
bin	145.50433333333	0
bin	145.53766666667	0
bin	145.571	1
bin	145.60433333333	0
bin	145.63766666667	0
bin	145.671	0
bin	145.70433333333	0
bin	145.73766666667	0
bin	145.771	0
bin	145.80433333333	0
bin	145.83766666667	0
bin	145.871	0
bin	145.90433333333	0
bin	145.93766666667	0
bin	145.971	0
bin	146.00433333333	0
bin	146.03766666667	0
bin	146.071	0
statistic RandomGeometricGraph.rgnv[50] 	arrivalPerc:histogram
field count 1
field mean 1
field stddev nan
field sum 1
field sqrsum 1
field min 1
field max 1
attr interpolationmode  none
attr source  count(arrival)
attr title  "arrival perc, histogram"
bin	-INF	0
bin	0	0
bin	1	1
bin	2	0
statistic RandomGeometricGraph.rgnv[51] 	arrivalTime:histogram
field count 1
field mean 316.815
field stddev nan
field sum 316.815
field sqrsum 100371.744225
field min 316.815
field max 316.815
attr interpolationmode  none
attr source  arrivalTime
attr title  "arrival time, histogram"
bin	-INF	0
bin	316.315	0
bin	316.34833333333	0
bin	316.38166666667	0
bin	316.415	0
bin	316.44833333333	0
bin	316.48166666667	0
bin	316.515	0
bin	316.54833333333	0
bin	316.58166666667	0
bin	316.615	0
bin	316.64833333333	0
bin	316.68166666667	0
bin	316.715	0
bin	316.74833333333	0
bin	316.78166666667	0
bin	316.815	1
bin	316.84833333333	0
bin	316.88166666667	0
bin	316.915	0
bin	316.94833333333	0
bin	316.98166666667	0
bin	317.015	0
bin	317.04833333333	0
bin	317.08166666667	0
bin	317.115	0
bin	317.14833333333	0
bin	317.18166666667	0
bin	317.215	0
bin	317.24833333333	0
bin	317.28166666667	0
bin	317.315	0
statistic RandomGeometricGraph.rgnv[51] 	arrivalPerc:histogram
field count 1
field mean 1
field stddev nan
field sum 1
field sqrsum 1
field min 1
field max 1
attr interpolationmode  none
attr source  count(arrival)
attr title  "arrival perc, histogram"
bin	-INF	0
bin	0	0
bin	1	1
bin	2	0
statistic RandomGeometricGraph.rgnv[52] 	arrivalTime:histogram
field count 1
field mean 253.449
field stddev nan
field sum 253.449
field sqrsum 64236.395601
field min 253.449
field max 253.449
attr interpolationmode  none
attr source  arrivalTime
attr title  "arrival time, histogram"
bin	-INF	0
bin	252.949	0
bin	252.98233333333	0
bin	253.01566666667	0
bin	253.049	0
bin	253.08233333333	0
bin	253.11566666667	0
bin	253.149	0
bin	253.18233333333	0
bin	253.21566666667	0
bin	253.249	0
bin	253.28233333333	0
bin	253.31566666667	0
bin	253.349	0
bin	253.38233333333	0
bin	253.41566666667	0
bin	253.449	1
bin	253.48233333333	0
bin	253.51566666667	0
bin	253.549	0
bin	253.58233333333	0
bin	253.61566666667	0
bin	253.649	0
bin	253.68233333333	0
bin	253.71566666667	0
bin	253.749	0
bin	253.78233333333	0
bin	253.81566666667	0
bin	253.849	0
bin	253.88233333333	0
bin	253.91566666667	0
bin	253.949	0
statistic RandomGeometricGraph.rgnv[52] 	arrivalPerc:histogram
field count 1
field mean 1
field stddev nan
field sum 1
field sqrsum 1
field min 1
field max 1
attr interpolationmode  none
attr source  count(arrival)
attr title  "arrival perc, histogram"
bin	-INF	0
bin	0	0
bin	1	1
bin	2	0
statistic RandomGeometricGraph.rgnv[53] 	arrivalTime:histogram
field count 1
field mean 157.812
field stddev nan
field sum 157.812
field sqrsum 24904.627344
field min 157.812
field max 157.812
attr interpolationmode  none
attr source  arrivalTime
attr title  "arrival time, histogram"
bin	-INF	0
bin	157.312	0
bin	157.34533333333	0
bin	157.37866666667	0
bin	157.412	0
bin	157.44533333333	0
bin	157.47866666667	0
bin	157.512	0
bin	157.54533333333	0
bin	157.57866666667	0
bin	157.612	0
bin	157.64533333333	0
bin	157.67866666667	0
bin	157.712	0
bin	157.74533333333	0
bin	157.77866666667	0
bin	157.812	1
bin	157.84533333333	0
bin	157.87866666667	0
bin	157.912	0
bin	157.94533333333	0
bin	157.97866666667	0
bin	158.012	0
bin	158.04533333333	0
bin	158.07866666667	0
bin	158.112	0
bin	158.14533333333	0
bin	158.17866666667	0
bin	158.212	0
bin	158.24533333333	0
bin	158.27866666667	0
bin	158.312	0
statistic RandomGeometricGraph.rgnv[53] 	arrivalPerc:histogram
field count 1
field mean 1
field stddev nan
field sum 1
field sqrsum 1
field min 1
field max 1
attr interpolationmode  none
attr source  count(arrival)
attr title  "arrival perc, histogram"
bin	-INF	0
bin	0	0
bin	1	1
bin	2	0
statistic RandomGeometricGraph.rgnv[54] 	arrivalTime:histogram
field count 1
field mean 175.043
field stddev nan
field sum 175.043
field sqrsum 30640.051849
field min 175.043
field max 175.043
attr interpolationmode  none
attr source  arrivalTime
attr title  "arrival time, histogram"
bin	-INF	0
bin	174.543	0
bin	174.57633333333	0
bin	174.60966666667	0
bin	174.643	0
bin	174.67633333333	0
bin	174.70966666667	0
bin	174.743	0
bin	174.77633333333	0
bin	174.80966666667	0
bin	174.843	0
bin	174.87633333333	0
bin	174.90966666667	0
bin	174.943	0
bin	174.97633333333	0
bin	175.00966666667	0
bin	175.043	1
bin	175.07633333333	0
bin	175.10966666667	0
bin	175.143	0
bin	175.17633333333	0
bin	175.20966666667	0
bin	175.243	0
bin	175.27633333333	0
bin	175.30966666667	0
bin	175.343	0
bin	175.37633333333	0
bin	175.40966666667	0
bin	175.443	0
bin	175.47633333333	0
bin	175.50966666667	0
bin	175.543	0
statistic RandomGeometricGraph.rgnv[54] 	arrivalPerc:histogram
field count 1
field mean 1
field stddev nan
field sum 1
field sqrsum 1
field min 1
field max 1
attr interpolationmode  none
attr source  count(arrival)
attr title  "arrival perc, histogram"
bin	-INF	0
bin	0	0
bin	1	1
bin	2	0
statistic RandomGeometricGraph.rgnv[55] 	arrivalTime:histogram
field count 1
field mean 292.363
field stddev nan
field sum 292.363
field sqrsum 85476.123769
field min 292.363
field max 292.363
attr interpolationmode  none
attr source  arrivalTime
attr title  "arrival time, histogram"
bin	-INF	0
bin	291.863	0
bin	291.89633333333	0
bin	291.92966666667	0
bin	291.963	0
bin	291.99633333333	0
bin	292.02966666667	0
bin	292.063	0
bin	292.09633333333	0
bin	292.12966666667	0
bin	292.163	0
bin	292.19633333333	0
bin	292.22966666667	0
bin	292.263	0
bin	292.29633333333	0
bin	292.32966666667	0
bin	292.363	1
bin	292.39633333333	0
bin	292.42966666667	0
bin	292.463	0
bin	292.49633333333	0
bin	292.52966666667	0
bin	292.563	0
bin	292.59633333333	0
bin	292.62966666667	0
bin	292.663	0
bin	292.69633333333	0
bin	292.72966666667	0
bin	292.763	0
bin	292.79633333333	0
bin	292.82966666667	0
bin	292.863	0
statistic RandomGeometricGraph.rgnv[55] 	arrivalPerc:histogram
field count 1
field mean 1
field stddev nan
field sum 1
field sqrsum 1
field min 1
field max 1
attr interpolationmode  none
attr source  count(arrival)
attr title  "arrival perc, histogram"
bin	-INF	0
bin	0	0
bin	1	1
bin	2	0
statistic RandomGeometricGraph.rgnv[56] 	arrivalTime:histogram
field count 1
field mean 170.043
field stddev nan
field sum 170.043
field sqrsum 28914.621849
field min 170.043
field max 170.043
attr interpolationmode  none
attr source  arrivalTime
attr title  "arrival time, histogram"
bin	-INF	0
bin	169.543	0
bin	169.57633333333	0
bin	169.60966666667	0
bin	169.643	0
bin	169.67633333333	0
bin	169.70966666667	0
bin	169.743	0
bin	169.77633333333	0
bin	169.80966666667	0
bin	169.843	0
bin	169.87633333333	0
bin	169.90966666667	0
bin	169.943	0
bin	169.97633333333	0
bin	170.00966666667	0
bin	170.043	1
bin	170.07633333333	0
bin	170.10966666667	0
bin	170.143	0
bin	170.17633333333	0
bin	170.20966666667	0
bin	170.243	0
bin	170.27633333333	0
bin	170.30966666667	0
bin	170.343	0
bin	170.37633333333	0
bin	170.40966666667	0
bin	170.443	0
bin	170.47633333333	0
bin	170.50966666667	0
bin	170.543	0
statistic RandomGeometricGraph.rgnv[56] 	arrivalPerc:histogram
field count 1
field mean 1
field stddev nan
field sum 1
field sqrsum 1
field min 1
field max 1
attr interpolationmode  none
attr source  count(arrival)
attr title  "arrival perc, histogram"
bin	-INF	0
bin	0	0
bin	1	1
bin	2	0
statistic RandomGeometricGraph.rgnv[57] 	arrivalTime:histogram
field count 1
field mean 192.294
field stddev nan
field sum 192.294
field sqrsum 36976.982436
field min 192.294
field max 192.294
attr interpolationmode  none
attr source  arrivalTime
attr title  "arrival time, histogram"
bin	-INF	0
bin	191.794	0
bin	191.82733333333	0
bin	191.86066666667	0
bin	191.894	0
bin	191.92733333333	0
bin	191.96066666667	0
bin	191.994	0
bin	192.02733333333	0
bin	192.06066666667	0
bin	192.094	0
bin	192.12733333333	0
bin	192.16066666667	0
bin	192.194	0
bin	192.22733333333	0
bin	192.26066666667	0
bin	192.294	1
bin	192.32733333333	0
bin	192.36066666667	0
bin	192.394	0
bin	192.42733333333	0
bin	192.46066666667	0
bin	192.494	0
bin	192.52733333333	0
bin	192.56066666667	0
bin	192.594	0
bin	192.62733333333	0
bin	192.66066666667	0
bin	192.694	0
bin	192.72733333333	0
bin	192.76066666667	0
bin	192.794	0
statistic RandomGeometricGraph.rgnv[57] 	arrivalPerc:histogram
field count 1
field mean 1
field stddev nan
field sum 1
field sqrsum 1
field min 1
field max 1
attr interpolationmode  none
attr source  count(arrival)
attr title  "arrival perc, histogram"
bin	-INF	0
bin	0	0
bin	1	1
bin	2	0
statistic RandomGeometricGraph.rgnv[58] 	arrivalTime:histogram
field count 1
field mean 162.822
field stddev nan
field sum 162.822
field sqrsum 26511.003684
field min 162.822
field max 162.822
attr interpolationmode  none
attr source  arrivalTime
attr title  "arrival time, histogram"
bin	-INF	0
bin	162.322	0
bin	162.35533333333	0
bin	162.38866666667	0
bin	162.422	0
bin	162.45533333333	0
bin	162.48866666667	0
bin	162.522	0
bin	162.55533333333	0
bin	162.58866666667	0
bin	162.622	0
bin	162.65533333333	0
bin	162.68866666667	0
bin	162.722	0
bin	162.75533333333	0
bin	162.78866666667	0
bin	162.822	1
bin	162.85533333333	0
bin	162.88866666667	0
bin	162.922	0
bin	162.95533333333	0
bin	162.98866666667	0
bin	163.022	0
bin	163.05533333333	0
bin	163.08866666667	0
bin	163.122	0
bin	163.15533333333	0
bin	163.18866666667	0
bin	163.222	0
bin	163.25533333333	0
bin	163.28866666667	0
bin	163.322	0
statistic RandomGeometricGraph.rgnv[58] 	arrivalPerc:histogram
field count 1
field mean 1
field stddev nan
field sum 1
field sqrsum 1
field min 1
field max 1
attr interpolationmode  none
attr source  count(arrival)
attr title  "arrival perc, histogram"
bin	-INF	0
bin	0	0
bin	1	1
bin	2	0
statistic RandomGeometricGraph.rgnv[59] 	arrivalTime:histogram
field count 1
field mean 187.274
field stddev nan
field sum 187.274
field sqrsum 35071.551076
field min 187.274
field max 187.274
attr interpolationmode  none
attr source  arrivalTime
attr title  "arrival time, histogram"
bin	-INF	0
bin	186.774	0
bin	186.80733333333	0
bin	186.84066666667	0
bin	186.874	0
bin	186.90733333333	0
bin	186.94066666667	0
bin	186.974	0
bin	187.00733333333	0
bin	187.04066666667	0
bin	187.074	0
bin	187.10733333333	0
bin	187.14066666667	0
bin	187.174	0
bin	187.20733333333	0
bin	187.24066666667	0
bin	187.274	1
bin	187.30733333333	0
bin	187.34066666667	0
bin	187.374	0
bin	187.40733333333	0
bin	187.44066666667	0
bin	187.474	0
bin	187.50733333333	0
bin	187.54066666667	0
bin	187.574	0
bin	187.60733333333	0
bin	187.64066666667	0
bin	187.674	0
bin	187.70733333333	0
bin	187.74066666667	0
bin	187.774	0
statistic RandomGeometricGraph.rgnv[59] 	arrivalPerc:histogram
field count 1
field mean 1
field stddev nan
field sum 1
field sqrsum 1
field min 1
field max 1
attr interpolationmode  none
attr source  count(arrival)
attr title  "arrival perc, histogram"
bin	-INF	0
bin	0	0
bin	1	1
bin	2	0
statistic RandomGeometricGraph.rgnv[60] 	arrivalTime:histogram
field count 1
field mean 113.888
field stddev nan
field sum 113.888
field sqrsum 12970.476544
field min 113.888
field max 113.888
attr interpolationmode  none
attr source  arrivalTime
attr title  "arrival time, histogram"
bin	-INF	0
bin	113.388	0
bin	113.42133333333	0
bin	113.45466666667	0
bin	113.488	0
bin	113.52133333333	0
bin	113.55466666667	0
bin	113.588	0
bin	113.62133333333	0
bin	113.65466666667	0
bin	113.688	0
bin	113.72133333333	0
bin	113.75466666667	0
bin	113.788	0
bin	113.82133333333	0
bin	113.85466666667	0
bin	113.888	1
bin	113.92133333333	0
bin	113.95466666667	0
bin	113.988	0
bin	114.02133333333	0
bin	114.05466666667	0
bin	114.088	0
bin	114.12133333333	0
bin	114.15466666667	0
bin	114.188	0
bin	114.22133333333	0
bin	114.25466666667	0
bin	114.288	0
bin	114.32133333333	0
bin	114.35466666667	0
bin	114.388	0
statistic RandomGeometricGraph.rgnv[60] 	arrivalPerc:histogram
field count 1
field mean 1
field stddev nan
field sum 1
field sqrsum 1
field min 1
field max 1
attr interpolationmode  none
attr source  count(arrival)
attr title  "arrival perc, histogram"
bin	-INF	0
bin	0	0
bin	1	1
bin	2	0
statistic RandomGeometricGraph.rgnv[61] 	arrivalTime:histogram
field count 1
field mean 253.449
field stddev nan
field sum 253.449
field sqrsum 64236.395601
field min 253.449
field max 253.449
attr interpolationmode  none
attr source  arrivalTime
attr title  "arrival time, histogram"
bin	-INF	0
bin	252.949	0
bin	252.98233333333	0
bin	253.01566666667	0
bin	253.049	0
bin	253.08233333333	0
bin	253.11566666667	0
bin	253.149	0
bin	253.18233333333	0
bin	253.21566666667	0
bin	253.249	0
bin	253.28233333333	0
bin	253.31566666667	0
bin	253.349	0
bin	253.38233333333	0
bin	253.41566666667	0
bin	253.449	1
bin	253.48233333333	0
bin	253.51566666667	0
bin	253.549	0
bin	253.58233333333	0
bin	253.61566666667	0
bin	253.649	0
bin	253.68233333333	0
bin	253.71566666667	0
bin	253.749	0
bin	253.78233333333	0
bin	253.81566666667	0
bin	253.849	0
bin	253.88233333333	0
bin	253.91566666667	0
bin	253.949	0
statistic RandomGeometricGraph.rgnv[61] 	arrivalPerc:histogram
field count 1
field mean 1
field stddev nan
field sum 1
field sqrsum 1
field min 1
field max 1
attr interpolationmode  none
attr source  count(arrival)
attr title  "arrival perc, histogram"
bin	-INF	0
bin	0	0
bin	1	1
bin	2	0
statistic RandomGeometricGraph.rgnv[62] 	arrivalTime:histogram
field count 1
field mean 84.416
field stddev nan
field sum 84.416
field sqrsum 7126.061056
field min 84.416
field max 84.416
attr interpolationmode  none
attr source  arrivalTime
attr title  "arrival time, histogram"
bin	-INF	0
bin	83.916	0
bin	83.949333333333	0
bin	83.982666666667	0
bin	84.016	0
bin	84.049333333333	0
bin	84.082666666667	0
bin	84.116	0
bin	84.149333333333	0
bin	84.182666666667	0
bin	84.216	0
bin	84.249333333333	0
bin	84.282666666667	0
bin	84.316	0
bin	84.349333333333	0
bin	84.382666666667	0
bin	84.416	1
bin	84.449333333333	0
bin	84.482666666667	0
bin	84.516	0
bin	84.549333333333	0
bin	84.582666666667	0
bin	84.616	0
bin	84.649333333333	0
bin	84.682666666667	0
bin	84.716	0
bin	84.749333333333	0
bin	84.782666666667	0
bin	84.816	0
bin	84.849333333333	0
bin	84.882666666667	0
bin	84.916	0
statistic RandomGeometricGraph.rgnv[62] 	arrivalPerc:histogram
field count 1
field mean 1
field stddev nan
field sum 1
field sqrsum 1
field min 1
field max 1
attr interpolationmode  none
attr source  count(arrival)
attr title  "arrival perc, histogram"
bin	-INF	0
bin	0	0
bin	1	1
bin	2	0
statistic RandomGeometricGraph.rgnv[63] 	arrivalTime:histogram
field count 1
field mean 194.515
field stddev nan
field sum 194.515
field sqrsum 37836.085225
field min 194.515
field max 194.515
attr interpolationmode  none
attr source  arrivalTime
attr title  "arrival time, histogram"
bin	-INF	0
bin	194.015	0
bin	194.04833333333	0
bin	194.08166666667	0
bin	194.115	0
bin	194.14833333333	0
bin	194.18166666667	0
bin	194.215	0
bin	194.24833333333	0
bin	194.28166666667	0
bin	194.315	0
bin	194.34833333333	0
bin	194.38166666667	0
bin	194.415	0
bin	194.44833333333	0
bin	194.48166666667	0
bin	194.515	1
bin	194.54833333333	0
bin	194.58166666667	0
bin	194.615	0
bin	194.64833333333	0
bin	194.68166666667	0
bin	194.715	0
bin	194.74833333333	0
bin	194.78166666667	0
bin	194.815	0
bin	194.84833333333	0
bin	194.88166666667	0
bin	194.915	0
bin	194.94833333333	0
bin	194.98166666667	0
bin	195.015	0
statistic RandomGeometricGraph.rgnv[63] 	arrivalPerc:histogram
field count 1
field mean 1
field stddev nan
field sum 1
field sqrsum 1
field min 1
field max 1
attr interpolationmode  none
attr source  count(arrival)
attr title  "arrival perc, histogram"
bin	-INF	0
bin	0	0
bin	1	1
bin	2	0
statistic RandomGeometricGraph.rgnv[64] 	arrivalTime:histogram
field count 1
field mean 248.439
field stddev nan
field sum 248.439
field sqrsum 61721.936721
field min 248.439
field max 248.439
attr interpolationmode  none
attr source  arrivalTime
attr title  "arrival time, histogram"
bin	-INF	0
bin	247.939	0
bin	247.97233333333	0
bin	248.00566666667	0
bin	248.039	0
bin	248.07233333333	0
bin	248.10566666667	0
bin	248.139	0
bin	248.17233333333	0
bin	248.20566666667	0
bin	248.239	0
bin	248.27233333333	0
bin	248.30566666667	0
bin	248.339	0
bin	248.37233333333	0
bin	248.40566666667	0
bin	248.439	1
bin	248.47233333333	0
bin	248.50566666667	0
bin	248.539	0
bin	248.57233333333	0
bin	248.60566666667	0
bin	248.639	0
bin	248.67233333333	0
bin	248.70566666667	0
bin	248.739	0
bin	248.77233333333	0
bin	248.80566666667	0
bin	248.839	0
bin	248.87233333333	0
bin	248.90566666667	0
bin	248.939	0
statistic RandomGeometricGraph.rgnv[64] 	arrivalPerc:histogram
field count 1
field mean 1
field stddev nan
field sum 1
field sqrsum 1
field min 1
field max 1
attr interpolationmode  none
attr source  count(arrival)
attr title  "arrival perc, histogram"
bin	-INF	0
bin	0	0
bin	1	1
bin	2	0
statistic RandomGeometricGraph.rgnv[65] 	arrivalTime:histogram
field count 0
field mean nan
field stddev nan
field sum 0
field sqrsum 0
field min nan
field max nan
attr interpolationmode  none
attr source  arrivalTime
attr title  "arrival time, histogram"
bin	-INF	0
bin	-0.5	0
bin	-0.46666666666667	0
bin	-0.43333333333333	0
bin	-0.4	0
bin	-0.36666666666667	0
[...]
bin	1	1
bin	2	0
statistic RandomGeometricGraph.rgnv[183] 	arrivalTime:histogram
field count 1
field mean 351.307
field stddev nan
field sum 351.307
field sqrsum 123416.608249
field min 351.307
field max 351.307
attr interpolationmode  none
attr source  arrivalTime
attr title  "arrival time, histogram"
bin	-INF	0
bin	350.807	0
bin	350.84033333333	0
bin	350.87366666667	0
bin	350.907	0
bin	350.94033333333	0
bin	350.97366666667	0
bin	351.007	0
bin	351.04033333333	0
bin	351.07366666667	0
bin	351.107	0
bin	351.14033333333	0
bin	351.17366666667	0
bin	351.207	0
bin	351.24033333333	0
bin	351.27366666667	0
bin	351.307	1
bin	351.34033333333	0
bin	351.37366666667	0
bin	351.407	0
bin	351.44033333333	0
bin	351.47366666667	0
bin	351.507	0
bin	351.54033333333	0
bin	351.57366666667	0
bin	351.607	0
bin	351.64033333333	0
bin	351.67366666667	0
bin	351.707	0
bin	351.74033333333	0
bin	351.77366666667	0
bin	351.807	0
statistic RandomGeometricGraph.rgnv[183] 	arrivalPerc:histogram
field count 1
field mean 1
field stddev nan
field sum 1
field sqrsum 1
field min 1
field max 1
attr interpolationmode  none
attr source  count(arrival)
attr title  "arrival perc, histogram"
bin	-INF	0
bin	0	0
bin	1	1
bin	2	0
statistic RandomGeometricGraph.rgnv[184] 	arrivalTime:histogram
field count 1
field mean 199.515
field stddev nan
field sum 199.515
field sqrsum 39806.235225
field min 199.515
field max 199.515
attr interpolationmode  none
attr source  arrivalTime
attr title  "arrival time, histogram"
bin	-INF	0
bin	199.015	0
bin	199.04833333333	0
bin	199.08166666667	0
bin	199.115	0
bin	199.14833333333	0
bin	199.18166666667	0
bin	199.215	0
bin	199.24833333333	0
bin	199.28166666667	0
bin	199.315	0
bin	199.34833333333	0
bin	199.38166666667	0
bin	199.415	0
bin	199.44833333333	0
bin	199.48166666667	0
bin	199.515	1
bin	199.54833333333	0
bin	199.58166666667	0
bin	199.615	0
bin	199.64833333333	0
bin	199.68166666667	0
bin	199.715	0
bin	199.74833333333	0
bin	199.78166666667	0
bin	199.815	0
bin	199.84833333333	0
bin	199.88166666667	0
bin	199.915	0
bin	199.94833333333	0
bin	199.98166666667	0
bin	200.015	0
statistic RandomGeometricGraph.rgnv[184] 	arrivalPerc:histogram
field count 1
field mean 1
field stddev nan
field sum 1
field sqrsum 1
field min 1
field max 1
attr interpolationmode  none
attr source  count(arrival)
attr title  "arrival perc, histogram"
bin	-INF	0
bin	0	0
bin	1	1
bin	2	0
statistic RandomGeometricGraph.rgnv[185] 	arrivalTime:histogram
field count 1
field mean 231.218
field stddev nan
field sum 231.218
field sqrsum 53461.763524
field min 231.218
field max 231.218
attr interpolationmode  none
attr source  arrivalTime
attr title  "arrival time, histogram"
bin	-INF	0
bin	230.718	0
bin	230.75133333333	0
bin	230.78466666667	0
bin	230.818	0
bin	230.85133333333	0
bin	230.88466666667	0
bin	230.918	0
bin	230.95133333333	0
bin	230.98466666667	0
bin	231.018	0
bin	231.05133333333	0
bin	231.08466666667	0
bin	231.118	0
bin	231.15133333333	0
bin	231.18466666667	0
bin	231.218	1
bin	231.25133333333	0
bin	231.28466666667	0
bin	231.318	0
bin	231.35133333333	0
bin	231.38466666667	0
bin	231.418	0
bin	231.45133333333	0
bin	231.48466666667	0
bin	231.518	0
bin	231.55133333333	0
bin	231.58466666667	0
bin	231.618	0
bin	231.65133333333	0
bin	231.68466666667	0
bin	231.718	0
statistic RandomGeometricGraph.rgnv[185] 	arrivalPerc:histogram
field count 1
field mean 1
field stddev nan
field sum 1
field sqrsum 1
field min 1
field max 1
attr interpolationmode  none
attr source  count(arrival)
attr title  "arrival perc, histogram"
bin	-INF	0
bin	0	0
bin	1	1
bin	2	0
statistic RandomGeometricGraph.rgnv[186] 	arrivalTime:histogram
field count 1
field mean 260.68
field stddev nan
field sum 260.68
field sqrsum 67954.0624
field min 260.68
field max 260.68
attr interpolationmode  none
attr source  arrivalTime
attr title  "arrival time, histogram"
bin	-INF	0
bin	260.18	0
bin	260.21333333333	0
bin	260.24666666667	0
bin	260.28	0
bin	260.31333333333	0
bin	260.34666666667	0
bin	260.38	0
bin	260.41333333333	0
bin	260.44666666667	0
bin	260.48	0
bin	260.51333333333	0
bin	260.54666666667	0
bin	260.58	0
bin	260.61333333333	0
bin	260.64666666667	0
bin	260.68	1
bin	260.71333333333	0
bin	260.74666666667	0
bin	260.78	0
bin	260.81333333333	0
bin	260.84666666667	0
bin	260.88	0
bin	260.91333333333	0
bin	260.94666666667	0
bin	260.98	0
bin	261.01333333333	0
bin	261.04666666667	0
bin	261.08	0
bin	261.11333333333	0
bin	261.14666666667	0
bin	261.18	0
statistic RandomGeometricGraph.rgnv[186] 	arrivalPerc:histogram
field count 1
field mean 1
field stddev nan
field sum 1
field sqrsum 1
field min 1
field max 1
attr interpolationmode  none
attr source  count(arrival)
attr title  "arrival perc, histogram"
bin	-INF	0
bin	0	0
bin	1	1
bin	2	0
statistic RandomGeometricGraph.rgnv[187] 	arrivalTime:histogram
field count 1
field mean 272.901
field stddev nan
field sum 272.901
field sqrsum 74474.955801
field min 272.901
field max 272.901
attr interpolationmode  none
attr source  arrivalTime
attr title  "arrival time, histogram"
bin	-INF	0
bin	272.401	0
bin	272.43433333333	0
bin	272.46766666667	0
bin	272.501	0
bin	272.53433333333	0
bin	272.56766666667	0
bin	272.601	0
bin	272.63433333333	0
bin	272.66766666667	0
bin	272.701	0
bin	272.73433333333	0
bin	272.76766666667	0
bin	272.801	0
bin	272.83433333333	0
bin	272.86766666667	0
bin	272.901	1
bin	272.93433333333	0
bin	272.96766666667	0
bin	273.001	0
bin	273.03433333333	0
bin	273.06766666667	0
bin	273.101	0
bin	273.13433333333	0
bin	273.16766666667	0
bin	273.201	0
bin	273.23433333333	0
bin	273.26766666667	0
bin	273.301	0
bin	273.33433333333	0
bin	273.36766666667	0
bin	273.401	0
statistic RandomGeometricGraph.rgnv[187] 	arrivalPerc:histogram
field count 1
field mean 1
field stddev nan
field sum 1
field sqrsum 1
field min 1
field max 1
attr interpolationmode  none
attr source  count(arrival)
attr title  "arrival perc, histogram"
bin	-INF	0
bin	0	0
bin	1	1
bin	2	0
statistic RandomGeometricGraph.rgnv[188] 	arrivalTime:histogram
field count 1
field mean 231.198
field stddev nan
field sum 231.198
field sqrsum 53452.515204
field min 231.198
field max 231.198
attr interpolationmode  none
attr source  arrivalTime
attr title  "arrival time, histogram"
bin	-INF	0
bin	230.698	0
bin	230.73133333333	0
bin	230.76466666667	0
bin	230.798	0
bin	230.83133333333	0
bin	230.86466666667	0
bin	230.898	0
bin	230.93133333333	0
bin	230.96466666667	0
bin	230.998	0
bin	231.03133333333	0
bin	231.06466666667	0
bin	231.098	0
bin	231.13133333333	0
bin	231.16466666667	0
bin	231.198	1
bin	231.23133333333	0
bin	231.26466666667	0
bin	231.298	0
bin	231.33133333333	0
bin	231.36466666667	0
bin	231.398	0
bin	231.43133333333	0
bin	231.46466666667	0
bin	231.498	0
bin	231.53133333333	0
bin	231.56466666667	0
bin	231.598	0
bin	231.63133333333	0
bin	231.66466666667	0
bin	231.698	0
statistic RandomGeometricGraph.rgnv[188] 	arrivalPerc:histogram
field count 1
field mean 1
field stddev nan
field sum 1
field sqrsum 1
field min 1
field max 1
attr interpolationmode  none
attr source  count(arrival)
attr title  "arrival perc, histogram"
bin	-INF	0
bin	0	0
bin	1	1
bin	2	0
statistic RandomGeometricGraph.rgnv[189] 	arrivalTime:histogram
field count 1
field mean 194.525
field stddev nan
field sum 194.525
field sqrsum 37839.975625
field min 194.525
field max 194.525
attr interpolationmode  none
attr source  arrivalTime
attr title  "arrival time, histogram"
bin	-INF	0
bin	194.025	0
bin	194.05833333333	0
bin	194.09166666667	0
bin	194.125	0
bin	194.15833333333	0
bin	194.19166666667	0
bin	194.225	0
bin	194.25833333333	0
bin	194.29166666667	0
bin	194.325	0
bin	194.35833333333	0
bin	194.39166666667	0
bin	194.425	0
bin	194.45833333333	0
bin	194.49166666667	0
bin	194.525	1
bin	194.55833333333	0
bin	194.59166666667	0
bin	194.625	0
bin	194.65833333333	0
bin	194.69166666667	0
bin	194.725	0
bin	194.75833333333	0
bin	194.79166666667	0
bin	194.825	0
bin	194.85833333333	0
bin	194.89166666667	0
bin	194.925	0
bin	194.95833333333	0
bin	194.99166666667	0
bin	195.025	0
statistic RandomGeometricGraph.rgnv[189] 	arrivalPerc:histogram
field count 1
field mean 1
field stddev nan
field sum 1
field sqrsum 1
field min 1
field max 1
attr interpolationmode  none
attr source  count(arrival)
attr title  "arrival perc, histogram"
bin	-INF	0
bin	0	0
bin	1	1
bin	2	0
statistic RandomGeometricGraph.rgnv[190] 	arrivalTime:histogram
field count 1
field mean 54.944
field stddev nan
field sum 54.944
field sqrsum 3018.843136
field min 54.944
field max 54.944
attr interpolationmode  none
attr source  arrivalTime
attr title  "arrival time, histogram"
bin	-INF	0
bin	54.444	0
bin	54.477333333333	0
bin	54.510666666667	0
bin	54.544	0
bin	54.577333333333	0
bin	54.610666666667	0
bin	54.644	0
bin	54.677333333333	0
bin	54.710666666667	0
bin	54.744	0
bin	54.777333333333	0
bin	54.810666666667	0
bin	54.844	0
bin	54.877333333333	0
bin	54.910666666667	0
bin	54.944	1
bin	54.977333333333	0
bin	55.010666666667	0
bin	55.044	0
bin	55.077333333333	0
bin	55.110666666667	0
bin	55.144	0
bin	55.177333333333	0
bin	55.210666666667	0
bin	55.244	0
bin	55.277333333333	0
bin	55.310666666667	0
bin	55.344	0
bin	55.377333333333	0
bin	55.410666666667	0
bin	55.444	0
statistic RandomGeometricGraph.rgnv[190] 	arrivalPerc:histogram
field count 1
field mean 1
field stddev nan
field sum 1
field sqrsum 1
field min 1
field max 1
attr interpolationmode  none
attr source  count(arrival)
attr title  "arrival perc, histogram"
bin	-INF	0
bin	0	0
bin	1	1
bin	2	0
statistic RandomGeometricGraph.rgnv[191] 	arrivalTime:histogram
field count 1
field mean 72.185
field stddev nan
field sum 72.185
field sqrsum 5210.674225
field min 72.185
field max 72.185
attr interpolationmode  none
attr source  arrivalTime
attr title  "arrival time, histogram"
bin	-INF	0
bin	71.685	0
bin	71.718333333333	0
bin	71.751666666667	0
bin	71.785	0
bin	71.818333333333	0
bin	71.851666666667	0
bin	71.885	0
bin	71.918333333333	0
bin	71.951666666667	0
bin	71.985	0
bin	72.018333333333	0
bin	72.051666666667	0
bin	72.085	0
bin	72.118333333333	0
bin	72.151666666667	0
bin	72.185	1
bin	72.218333333333	0
bin	72.251666666667	0
bin	72.285	0
bin	72.318333333333	0
bin	72.351666666667	0
bin	72.385	0
bin	72.418333333333	0
bin	72.451666666667	0
bin	72.485	0
bin	72.518333333333	0
bin	72.551666666667	0
bin	72.585	0
bin	72.618333333333	0
bin	72.651666666667	0
bin	72.685	0
statistic RandomGeometricGraph.rgnv[191] 	arrivalPerc:histogram
field count 1
field mean 1
field stddev nan
field sum 1
field sqrsum 1
field min 1
field max 1
attr interpolationmode  none
attr source  count(arrival)
attr title  "arrival perc, histogram"
bin	-INF	0
bin	0	0
bin	1	1
bin	2	0
statistic RandomGeometricGraph.rgnv[192] 	arrivalTime:histogram
field count 1
field mean 280.142
field stddev nan
field sum 280.142
field sqrsum 78479.540164
field min 280.142
field max 280.142
attr interpolationmode  none
attr source  arrivalTime
attr title  "arrival time, histogram"
bin	-INF	0
bin	279.642	0
bin	279.67533333333	0
bin	279.70866666667	0
bin	279.742	0
bin	279.77533333333	0
bin	279.80866666667	0
bin	279.842	0
bin	279.87533333333	0
bin	279.90866666667	0
bin	279.942	0
bin	279.97533333333	0
bin	280.00866666667	0
bin	280.042	0
bin	280.07533333333	0
bin	280.10866666667	0
bin	280.142	1
bin	280.17533333333	0
bin	280.20866666667	0
bin	280.242	0
bin	280.27533333333	0
bin	280.30866666667	0
bin	280.342	0
bin	280.37533333333	0
bin	280.40866666667	0
bin	280.442	0
bin	280.47533333333	0
bin	280.50866666667	0
bin	280.542	0
bin	280.57533333333	0
bin	280.60866666667	0
bin	280.642	0
statistic RandomGeometricGraph.rgnv[192] 	arrivalPerc:histogram
field count 1
field mean 1
field stddev nan
field sum 1
field sqrsum 1
field min 1
field max 1
attr interpolationmode  none
attr source  count(arrival)
attr title  "arrival perc, histogram"
bin	-INF	0
bin	0	0
bin	1	1
bin	2	0
statistic RandomGeometricGraph.rgnv[193] 	arrivalTime:histogram
field count 1
field mean 258.459
field stddev nan
field sum 258.459
field sqrsum 66801.054681
field min 258.459
field max 258.459
attr interpolationmode  none
attr source  arrivalTime
attr title  "arrival time, histogram"
bin	-INF	0
bin	257.959	0
bin	257.99233333333	0
bin	258.02566666667	0
bin	258.059	0
bin	258.09233333333	0
bin	258.12566666667	0
bin	258.159	0
bin	258.19233333333	0
bin	258.22566666667	0
bin	258.259	0
bin	258.29233333333	0
bin	258.32566666667	0
bin	258.359	0
bin	258.39233333333	0
bin	258.42566666667	0
bin	258.459	1
bin	258.49233333333	0
bin	258.52566666667	0
bin	258.559	0
bin	258.59233333333	0
bin	258.62566666667	0
bin	258.659	0
bin	258.69233333333	0
bin	258.72566666667	0
bin	258.759	0
bin	258.79233333333	0
bin	258.82566666667	0
bin	258.859	0
bin	258.89233333333	0
bin	258.92566666667	0
bin	258.959	0
statistic RandomGeometricGraph.rgnv[193] 	arrivalPerc:histogram
field count 1
field mean 1
field stddev nan
field sum 1
field sqrsum 1
field min 1
field max 1
attr interpolationmode  none
attr source  count(arrival)
attr title  "arrival perc, histogram"
bin	-INF	0
bin	0	0
bin	1	1
bin	2	0
statistic RandomGeometricGraph.rgnv[194] 	arrivalTime:histogram
field count 1
field mean 187.284
field stddev nan
field sum 187.284
field sqrsum 35075.296656
field min 187.284
field max 187.284
attr interpolationmode  none
attr source  arrivalTime
attr title  "arrival time, histogram"
bin	-INF	0
bin	186.784	0
bin	186.81733333333	0
bin	186.85066666667	0
bin	186.884	0
bin	186.91733333333	0
bin	186.95066666667	0
bin	186.984	0
bin	187.01733333333	0
bin	187.05066666667	0
bin	187.084	0
bin	187.11733333333	0
bin	187.15066666667	0
bin	187.184	0
bin	187.21733333333	0
bin	187.25066666667	0
bin	187.284	1
bin	187.31733333333	0
bin	187.35066666667	0
bin	187.384	0
bin	187.41733333333	0
bin	187.45066666667	0
bin	187.484	0
bin	187.51733333333	0
bin	187.55066666667	0
bin	187.584	0
bin	187.61733333333	0
bin	187.65066666667	0
bin	187.684	0
bin	187.71733333333	0
bin	187.75066666667	0
bin	187.784	0
statistic RandomGeometricGraph.rgnv[194] 	arrivalPerc:histogram
field count 1
field mean 1
field stddev nan
field sum 1
field sqrsum 1
field min 1
field max 1
attr interpolationmode  none
attr source  count(arrival)
attr title  "arrival perc, histogram"
bin	-INF	0
bin	0	0
bin	1	1
bin	2	0
statistic RandomGeometricGraph.rgnv[195] 	arrivalTime:histogram
field count 1
field mean 243.429
field stddev nan
field sum 243.429
field sqrsum 59257.678041
field min 243.429
field max 243.429
attr interpolationmode  none
attr source  arrivalTime
attr title  "arrival time, histogram"
bin	-INF	0
bin	242.929	0
bin	242.96233333333	0
bin	242.99566666667	0
bin	243.029	0
bin	243.06233333333	0
bin	243.09566666667	0
bin	243.129	0
bin	243.16233333333	0
bin	243.19566666667	0
bin	243.229	0
bin	243.26233333333	0
bin	243.29566666667	0
bin	243.329	0
bin	243.36233333333	0
bin	243.39566666667	0
bin	243.429	1
bin	243.46233333333	0
bin	243.49566666667	0
bin	243.529	0
bin	243.56233333333	0
bin	243.59566666667	0
bin	243.629	0
bin	243.66233333333	0
bin	243.69566666667	0
bin	243.729	0
bin	243.76233333333	0
bin	243.79566666667	0
bin	243.829	0
bin	243.86233333333	0
bin	243.89566666667	0
bin	243.929	0
statistic RandomGeometricGraph.rgnv[195] 	arrivalPerc:histogram
field count 1
field mean 1
field stddev nan
field sum 1
field sqrsum 1
field min 1
field max 1
attr interpolationmode  none
attr source  count(arrival)
attr title  "arrival perc, histogram"
bin	-INF	0
bin	0	0
bin	1	1
bin	2	0
statistic RandomGeometricGraph.rgnv[196] 	arrivalTime:histogram
field count 1
field mean 182.274
field stddev nan
field sum 182.274
field sqrsum 33223.811076
field min 182.274
field max 182.274
attr interpolationmode  none
attr source  arrivalTime
attr title  "arrival time, histogram"
bin	-INF	0
bin	181.774	0
bin	181.80733333333	0
bin	181.84066666667	0
bin	181.874	0
bin	181.90733333333	0
bin	181.94066666667	0
bin	181.974	0
bin	182.00733333333	0
bin	182.04066666667	0
bin	182.074	0
bin	182.10733333333	0
bin	182.14066666667	0
bin	182.174	0
bin	182.20733333333	0
bin	182.24066666667	0
bin	182.274	1
bin	182.30733333333	0
bin	182.34066666667	0
bin	182.374	0
bin	182.40733333333	0
bin	182.44066666667	0
bin	182.474	0
bin	182.50733333333	0
bin	182.54066666667	0
bin	182.574	0
bin	182.60733333333	0
bin	182.64066666667	0
bin	182.674	0
bin	182.70733333333	0
bin	182.74066666667	0
bin	182.774	0
statistic RandomGeometricGraph.rgnv[196] 	arrivalPerc:histogram
field count 1
field mean 1
field stddev nan
field sum 1
field sqrsum 1
field min 1
field max 1
attr interpolationmode  none
attr source  count(arrival)
attr title  "arrival perc, histogram"
bin	-INF	0
bin	0	0
bin	1	1
bin	2	0
statistic RandomGeometricGraph.rgnv[197] 	arrivalTime:histogram
field count 1
field mean 25.472
field stddev nan
field sum 25.472
field sqrsum 648.822784
field min 25.472
field max 25.472
attr interpolationmode  none
attr source  arrivalTime
attr title  "arrival time, histogram"
bin	-INF	0
bin	24.972	0
bin	25.005333333333	0
bin	25.038666666667	0
bin	25.072	0
bin	25.105333333333	0
bin	25.138666666667	0
bin	25.172	0
bin	25.205333333333	0
bin	25.238666666667	0
bin	25.272	0
bin	25.305333333333	0
bin	25.338666666667	0
bin	25.372	0
bin	25.405333333333	0
bin	25.438666666667	0
bin	25.472	1
bin	25.505333333333	0
bin	25.538666666667	0
bin	25.572	0
bin	25.605333333333	0
bin	25.638666666667	0
bin	25.672	0
bin	25.705333333333	0
bin	25.738666666667	0
bin	25.772	0
bin	25.805333333333	0
bin	25.838666666667	0
bin	25.872	0
bin	25.905333333333	0
bin	25.938666666667	0
bin	25.972	0
statistic RandomGeometricGraph.rgnv[197] 	arrivalPerc:histogram
field count 1
field mean 1
field stddev nan
field sum 1
field sqrsum 1
field min 1
field max 1
attr interpolationmode  none
attr source  count(arrival)
attr title  "arrival perc, histogram"
bin	-INF	0
bin	0	0
bin	1	1
bin	2	0
statistic RandomGeometricGraph.rgnv[198] 	arrivalTime:histogram
field count 1
field mean 128.33
field stddev nan
field sum 128.33
field sqrsum 16468.5889
field min 128.33
field max 128.33
attr interpolationmode  none
attr source  arrivalTime
attr title  "arrival time, histogram"
bin	-INF	0
bin	127.83	0
bin	127.86333333333	0
bin	127.89666666667	0
bin	127.93	0
bin	127.96333333333	0
bin	127.99666666667	0
bin	128.03	0
bin	128.06333333333	0
bin	128.09666666667	0
bin	128.13	0
bin	128.16333333333	0
bin	128.19666666667	0
bin	128.23	0
bin	128.26333333333	0
bin	128.29666666667	0
bin	128.33	1
bin	128.36333333333	0
bin	128.39666666667	0
bin	128.43	0
bin	128.46333333333	0
bin	128.49666666667	0
bin	128.53	0
bin	128.56333333333	0
bin	128.59666666667	0
bin	128.63	0
bin	128.66333333333	0
bin	128.69666666667	0
bin	128.73	0
bin	128.76333333333	0
bin	128.79666666667	0
bin	128.83	0
statistic RandomGeometricGraph.rgnv[198] 	arrivalPerc:histogram
field count 1
field mean 1
field stddev nan
field sum 1
field sqrsum 1
field min 1
field max 1
attr interpolationmode  none
attr source  count(arrival)
attr title  "arrival perc, histogram"
bin	-INF	0
bin	0	0
bin	1	1
bin	2	0
statistic RandomGeometricGraph.rgnv[199] 	arrivalTime:histogram
field count 1
field mean 150.591
field stddev nan
field sum 150.591
field sqrsum 22677.649281
field min 150.591
field max 150.591
attr interpolationmode  none
attr source  arrivalTime
attr title  "arrival time, histogram"
bin	-INF	0
bin	150.091	0
bin	150.12433333333	0
bin	150.15766666667	0
bin	150.191	0
bin	150.22433333333	0
bin	150.25766666667	0
bin	150.291	0
bin	150.32433333333	0
bin	150.35766666667	0
bin	150.391	0
bin	150.42433333333	0
bin	150.45766666667	0
bin	150.491	0
bin	150.52433333333	0
bin	150.55766666667	0
bin	150.591	1
bin	150.62433333333	0
bin	150.65766666667	0
bin	150.691	0
bin	150.72433333333	0
bin	150.75766666667	0
bin	150.791	0
bin	150.82433333333	0
bin	150.85766666667	0
bin	150.891	0
bin	150.92433333333	0
bin	150.95766666667	0
bin	150.991	0
bin	151.02433333333	0
bin	151.05766666667	0
bin	151.091	0
statistic RandomGeometricGraph.rgnv[199] 	arrivalPerc:histogram
field count 1
field mean 1
field stddev nan
field sum 1
field sqrsum 1
field min 1
field max 1
attr interpolationmode  none
attr source  count(arrival)
attr title  "arrival perc, histogram"
bin	-INF	0
bin	0	0
bin	1	1
bin	2	0
