version 2
run rgg500-2-20170110-16:23:58-5180
attr configname rgg500
attr datetime 20170110-16:23:58
attr experiment rgg500
attr inifile iniFile/D001/omnetpp_15D001.ini
attr iterationvars ""
attr iterationvars2 $repetition=2
attr measurement ""
attr network blegossipprj.net.randomgeometricgraph.RandomGeometricGraph
attr processid 5180
attr repetition 2
attr replication #2
attr resultdir ../../results/D001/r15D001
attr runnumber 2
attr seedset 2
param RandomGeometricGraph.netSize 500
param RandomGeometricGraph.radius 15
param RandomGeometricGraph.rgnv[*].areaLength 224
param RandomGeometricGraph.rgnv[*].areaWidth 224

statistic RandomGeometricGraph.sc 	arrivalPercentage
field count 478
field mean 1
field stddev 0
field sum 478
field sqrsum 478
field min 1
field max 1
attr type  int
bin	-INF	0
bin	0	0
bin	1	478
bin	2	0
statistic RandomGeometricGraph.sc 	arrivalTime
field count 478
field mean 203.15255648536
field stddev 97.198204978896
field sum 97106.922
field sqrsum 24233972.688108
field min 0
field max 456.376
bin	-INF	0
bin	-58.0495	0
bin	-50.309566666667	0
bin	-42.569633333333	0
bin	-34.8297	0
bin	-27.089766666667	0
bin	-19.349833333333	0
bin	-11.6099	0
bin	-3.8699666666667	1
bin	3.8699666666667	0
bin	11.6099	1
bin	19.349833333333	2
bin	27.089766666667	0
bin	34.8297	4
bin	42.569633333333	5
bin	50.309566666667	2
bin	58.0495	6
bin	65.789433333333	7
bin	73.529366666667	13
bin	81.2693	10
bin	89.009233333333	8
bin	96.749166666667	19
bin	104.4891	16
bin	112.22903333333	10
bin	119.96896666667	16
bin	127.7089	9
bin	135.44883333333	19
bin	143.18876666667	16
bin	150.9287	11
bin	158.66863333333	22
bin	166.40856666667	14
bin	174.1485	267
statistic RandomGeometricGraph.rgnv[0] 	arrivalTime:histogram
field count 1
field mean 196.736
field stddev nan
field sum 196.736
field sqrsum 38705.053696
field min 196.736
field max 196.736
attr interpolationmode  none
attr source  arrivalTime
attr title  "arrival time, histogram"
bin	-INF	0
bin	196.236	0
bin	196.26933333333	0
bin	196.30266666667	0
bin	196.336	0
bin	196.36933333333	0
bin	196.40266666667	0
bin	196.436	0
bin	196.46933333333	0
bin	196.50266666667	0
bin	196.536	0
bin	196.56933333333	0
bin	196.60266666667	0
bin	196.636	0
bin	196.66933333333	0
bin	196.70266666667	0
bin	196.736	1
bin	196.76933333333	0
bin	196.80266666667	0
bin	196.836	0
bin	196.86933333333	0
bin	196.90266666667	0
bin	196.936	0
bin	196.96933333333	0
bin	197.00266666667	0
bin	197.036	0
bin	197.06933333333	0
bin	197.10266666667	0
bin	197.136	0
bin	197.16933333333	0
bin	197.20266666667	0
bin	197.236	0
statistic RandomGeometricGraph.rgnv[0] 	arrivalPerc:histogram
field count 1
field mean 1
field stddev nan
field sum 1
field sqrsum 1
field min 1
field max 1
attr interpolationmode  none
attr source  count(arrival)
attr title  "arrival perc, histogram"
bin	-INF	0
bin	0	0
bin	1	1
bin	2	0
statistic RandomGeometricGraph.rgnv[1] 	arrivalTime:histogram
field count 1
field mean 294.574
field stddev nan
field sum 294.574
field sqrsum 86773.841476
field min 294.574
field max 294.574
attr interpolationmode  none
attr source  arrivalTime
attr title  "arrival time, histogram"
bin	-INF	0
bin	294.074	0
bin	294.10733333333	0
bin	294.14066666667	0
bin	294.174	0
bin	294.20733333333	0
bin	294.24066666667	0
bin	294.274	0
bin	294.30733333333	0
bin	294.34066666667	0
bin	294.374	0
bin	294.40733333333	0
bin	294.44066666667	0
bin	294.474	0
bin	294.50733333333	0
bin	294.54066666667	0
bin	294.574	1
bin	294.60733333333	0
bin	294.64066666667	0
bin	294.674	0
bin	294.70733333333	0
bin	294.74066666667	0
bin	294.774	0
bin	294.80733333333	0
bin	294.84066666667	0
bin	294.874	0
bin	294.90733333333	0
bin	294.94066666667	0
bin	294.974	0
bin	295.00733333333	0
bin	295.04066666667	0
bin	295.074	0
statistic RandomGeometricGraph.rgnv[1] 	arrivalPerc:histogram
field count 1
field mean 1
field stddev nan
field sum 1
field sqrsum 1
field min 1
field max 1
attr interpolationmode  none
attr source  count(arrival)
attr title  "arrival perc, histogram"
bin	-INF	0
bin	0	0
bin	1	1
bin	2	0
statistic RandomGeometricGraph.rgnv[2] 	arrivalTime:histogram
field count 1
field mean 287.333
field stddev nan
field sum 287.333
field sqrsum 82560.252889
field min 287.333
field max 287.333
attr interpolationmode  none
attr source  arrivalTime
attr title  "arrival time, histogram"
bin	-INF	0
bin	286.833	0
bin	286.86633333333	0
bin	286.89966666667	0
bin	286.933	0
bin	286.96633333333	0
bin	286.99966666667	0
bin	287.033	0
bin	287.06633333333	0
bin	287.09966666667	0
bin	287.133	0
bin	287.16633333333	0
bin	287.19966666667	0
bin	287.233	0
bin	287.26633333333	0
bin	287.29966666667	0
bin	287.333	1
bin	287.36633333333	0
bin	287.39966666667	0
bin	287.433	0
bin	287.46633333333	0
bin	287.49966666667	0
bin	287.533	0
bin	287.56633333333	0
bin	287.59966666667	0
bin	287.633	0
bin	287.66633333333	0
bin	287.69966666667	0
bin	287.733	0
bin	287.76633333333	0
bin	287.79966666667	0
bin	287.833	0
statistic RandomGeometricGraph.rgnv[2] 	arrivalPerc:histogram
field count 1
field mean 1
field stddev nan
field sum 1
field sqrsum 1
field min 1
field max 1
attr interpolationmode  none
attr source  count(arrival)
attr title  "arrival perc, histogram"
bin	-INF	0
bin	0	0
bin	1	1
bin	2	0
statistic RandomGeometricGraph.rgnv[3] 	arrivalTime:histogram
field count 1
field mean 72.185
field stddev nan
field sum 72.185
field sqrsum 5210.674225
field min 72.185
field max 72.185
attr interpolationmode  none
attr source  arrivalTime
attr title  "arrival time, histogram"
bin	-INF	0
bin	71.685	0
bin	71.718333333333	0
bin	71.751666666667	0
bin	71.785	0
bin	71.818333333333	0
bin	71.851666666667	0
bin	71.885	0
bin	71.918333333333	0
bin	71.951666666667	0
bin	71.985	0
bin	72.018333333333	0
bin	72.051666666667	0
bin	72.085	0
bin	72.118333333333	0
bin	72.151666666667	0
bin	72.185	1
bin	72.218333333333	0
bin	72.251666666667	0
bin	72.285	0
bin	72.318333333333	0
bin	72.351666666667	0
bin	72.385	0
bin	72.418333333333	0
bin	72.451666666667	0
bin	72.485	0
bin	72.518333333333	0
bin	72.551666666667	0
bin	72.585	0
bin	72.618333333333	0
bin	72.651666666667	0
bin	72.685	0
statistic RandomGeometricGraph.rgnv[3] 	arrivalPerc:histogram
field count 1
field mean 1
field stddev nan
field sum 1
field sqrsum 1
field min 1
field max 1
attr interpolationmode  none
attr source  count(arrival)
attr title  "arrival perc, histogram"
bin	-INF	0
bin	0	0
bin	1	1
bin	2	0
statistic RandomGeometricGraph.rgnv[4] 	arrivalTime:histogram
field count 1
field mean 111.099
field stddev nan
field sum 111.099
field sqrsum 12342.987801
field min 111.099
field max 111.099
attr interpolationmode  none
attr source  arrivalTime
attr title  "arrival time, histogram"
bin	-INF	0
bin	110.599	0
bin	110.63233333333	0
bin	110.66566666667	0
bin	110.699	0
bin	110.73233333333	0
bin	110.76566666667	0
bin	110.799	0
bin	110.83233333333	0
bin	110.86566666667	0
bin	110.899	0
bin	110.93233333333	0
bin	110.96566666667	0
bin	110.999	0
bin	111.03233333333	0
bin	111.06566666667	0
bin	111.099	1
bin	111.13233333333	0
bin	111.16566666667	0
bin	111.199	0
bin	111.23233333333	0
bin	111.26566666667	0
bin	111.299	0
bin	111.33233333333	0
bin	111.36566666667	0
bin	111.399	0
bin	111.43233333333	0
bin	111.46566666667	0
bin	111.499	0
bin	111.53233333333	0
bin	111.56566666667	0
bin	111.599	0
statistic RandomGeometricGraph.rgnv[4] 	arrivalPerc:histogram
field count 1
field mean 1
field stddev nan
field sum 1
field sqrsum 1
field min 1
field max 1
attr interpolationmode  none
attr source  count(arrival)
attr title  "arrival perc, histogram"
bin	-INF	0
bin	0	0
bin	1	1
bin	2	0
statistic RandomGeometricGraph.rgnv[5] 	arrivalTime:histogram
field count 1
field mean 160.033
field stddev nan
field sum 160.033
field sqrsum 25610.561089
field min 160.033
field max 160.033
attr interpolationmode  none
attr source  arrivalTime
attr title  "arrival time, histogram"
bin	-INF	0
bin	159.533	0
bin	159.56633333333	0
bin	159.59966666667	0
bin	159.633	0
bin	159.66633333333	0
bin	159.69966666667	0
bin	159.733	0
bin	159.76633333333	0
bin	159.79966666667	0
bin	159.833	0
bin	159.86633333333	0
bin	159.89966666667	0
bin	159.933	0
bin	159.96633333333	0
bin	159.99966666667	0
bin	160.033	1
bin	160.06633333333	0
bin	160.09966666667	0
bin	160.133	0
bin	160.16633333333	0
bin	160.19966666667	0
bin	160.233	0
bin	160.26633333333	0
bin	160.29966666667	0
bin	160.333	0
bin	160.36633333333	0
bin	160.39966666667	0
bin	160.433	0
bin	160.46633333333	0
bin	160.49966666667	0
bin	160.533	0
statistic RandomGeometricGraph.rgnv[5] 	arrivalPerc:histogram
field count 1
field mean 1
field stddev nan
field sum 1
field sqrsum 1
field min 1
field max 1
attr interpolationmode  none
attr source  count(arrival)
attr title  "arrival perc, histogram"
bin	-INF	0
bin	0	0
bin	1	1
bin	2	0
statistic RandomGeometricGraph.rgnv[6] 	arrivalTime:histogram
field count 1
field mean 172.254
field stddev nan
field sum 172.254
field sqrsum 29671.440516
field min 172.254
field max 172.254
attr interpolationmode  none
attr source  arrivalTime
attr title  "arrival time, histogram"
bin	-INF	0
bin	171.754	0
bin	171.78733333333	0
bin	171.82066666667	0
bin	171.854	0
bin	171.88733333333	0
bin	171.92066666667	0
bin	171.954	0
bin	171.98733333333	0
bin	172.02066666667	0
bin	172.054	0
bin	172.08733333333	0
bin	172.12066666667	0
bin	172.154	0
bin	172.18733333333	0
bin	172.22066666667	0
bin	172.254	1
bin	172.28733333333	0
bin	172.32066666667	0
bin	172.354	0
bin	172.38733333333	0
bin	172.42066666667	0
bin	172.454	0
bin	172.48733333333	0
bin	172.52066666667	0
bin	172.554	0
bin	172.58733333333	0
bin	172.62066666667	0
bin	172.654	0
bin	172.68733333333	0
bin	172.72066666667	0
bin	172.754	0
statistic RandomGeometricGraph.rgnv[6] 	arrivalPerc:histogram
field count 1
field mean 1
field stddev nan
field sum 1
field sqrsum 1
field min 1
field max 1
attr interpolationmode  none
attr source  count(arrival)
attr title  "arrival perc, histogram"
bin	-INF	0
bin	0	0
bin	1	1
bin	2	0
statistic RandomGeometricGraph.rgnv[7] 	arrivalTime:histogram
field count 1
field mean 152.812
field stddev nan
field sum 152.812
field sqrsum 23351.507344
field min 152.812
field max 152.812
attr interpolationmode  none
attr source  arrivalTime
attr title  "arrival time, histogram"
bin	-INF	0
bin	152.312	0
bin	152.34533333333	0
bin	152.37866666667	0
bin	152.412	0
bin	152.44533333333	0
bin	152.47866666667	0
bin	152.512	0
bin	152.54533333333	0
bin	152.57866666667	0
bin	152.612	0
bin	152.64533333333	0
bin	152.67866666667	0
bin	152.712	0
bin	152.74533333333	0
bin	152.77866666667	0
bin	152.812	1
bin	152.84533333333	0
bin	152.87866666667	0
bin	152.912	0
bin	152.94533333333	0
bin	152.97866666667	0
bin	153.012	0
bin	153.04533333333	0
bin	153.07866666667	0
bin	153.112	0
bin	153.14533333333	0
bin	153.17866666667	0
bin	153.212	0
bin	153.24533333333	0
bin	153.27866666667	0
bin	153.312	0
statistic RandomGeometricGraph.rgnv[7] 	arrivalPerc:histogram
field count 1
field mean 1
field stddev nan
field sum 1
field sqrsum 1
field min 1
field max 1
attr interpolationmode  none
attr source  count(arrival)
attr title  "arrival perc, histogram"
bin	-INF	0
bin	0	0
bin	1	1
bin	2	0
statistic RandomGeometricGraph.rgnv[8] 	arrivalTime:histogram
field count 1
field mean 86.637
field stddev nan
field sum 86.637
field sqrsum 7505.969769
field min 86.637
field max 86.637
attr interpolationmode  none
attr source  arrivalTime
attr title  "arrival time, histogram"
bin	-INF	0
bin	86.137	0
bin	86.170333333333	0
bin	86.203666666667	0
bin	86.237	0
bin	86.270333333333	0
bin	86.303666666667	0
bin	86.337	0
bin	86.370333333333	0
bin	86.403666666667	0
bin	86.437	0
bin	86.470333333333	0
bin	86.503666666667	0
bin	86.537	0
bin	86.570333333333	0
bin	86.603666666667	0
bin	86.637	1
bin	86.670333333333	0
bin	86.703666666667	0
bin	86.737	0
bin	86.770333333333	0
bin	86.803666666667	0
bin	86.837	0
bin	86.870333333333	0
bin	86.903666666667	0
bin	86.937	0
bin	86.970333333333	0
bin	87.003666666667	0
bin	87.037	0
bin	87.070333333333	0
bin	87.103666666667	0
bin	87.137	0
statistic RandomGeometricGraph.rgnv[8] 	arrivalPerc:histogram
field count 1
field mean 1
field stddev nan
field sum 1
field sqrsum 1
field min 1
field max 1
attr interpolationmode  none
attr source  count(arrival)
attr title  "arrival perc, histogram"
bin	-INF	0
bin	0	0
bin	1	1
bin	2	0
statistic RandomGeometricGraph.rgnv[9] 	arrivalTime:histogram
field count 1
field mean 189.485
field stddev nan
field sum 189.485
field sqrsum 35904.565225
field min 189.485
field max 189.485
attr interpolationmode  none
attr source  arrivalTime
attr title  "arrival time, histogram"
bin	-INF	0
bin	188.985	0
bin	189.01833333333	0
bin	189.05166666667	0
bin	189.085	0
bin	189.11833333333	0
bin	189.15166666667	0
bin	189.185	0
bin	189.21833333333	0
bin	189.25166666667	0
bin	189.285	0
bin	189.31833333333	0
bin	189.35166666667	0
bin	189.385	0
bin	189.41833333333	0
bin	189.45166666667	0
bin	189.485	1
bin	189.51833333333	0
bin	189.55166666667	0
bin	189.585	0
bin	189.61833333333	0
bin	189.65166666667	0
bin	189.685	0
bin	189.71833333333	0
bin	189.75166666667	0
bin	189.785	0
bin	189.81833333333	0
bin	189.85166666667	0
bin	189.885	0
bin	189.91833333333	0
bin	189.95166666667	0
bin	189.985	0
statistic RandomGeometricGraph.rgnv[9] 	arrivalPerc:histogram
field count 1
field mean 1
field stddev nan
field sum 1
field sqrsum 1
field min 1
field max 1
attr interpolationmode  none
attr source  count(arrival)
attr title  "arrival perc, histogram"
bin	-INF	0
bin	0	0
bin	1	1
bin	2	0
statistic RandomGeometricGraph.rgnv[10] 	arrivalTime:histogram
field count 1
field mean 245.64
field stddev nan
field sum 245.64
field sqrsum 60339.0096
field min 245.64
field max 245.64
attr interpolationmode  none
attr source  arrivalTime
attr title  "arrival time, histogram"
bin	-INF	0
bin	245.14	0
bin	245.17333333333	0
bin	245.20666666667	0
bin	245.24	0
bin	245.27333333333	0
bin	245.30666666667	0
bin	245.34	0
bin	245.37333333333	0
bin	245.40666666667	0
bin	245.44	0
bin	245.47333333333	0
bin	245.50666666667	0
bin	245.54	0
bin	245.57333333333	0
bin	245.60666666667	0
bin	245.64	1
bin	245.67333333333	0
bin	245.70666666667	0
bin	245.74	0
bin	245.77333333333	0
bin	245.80666666667	0
bin	245.84	0
bin	245.87333333333	0
bin	245.90666666667	0
bin	245.94	0
bin	245.97333333333	0
bin	246.00666666667	0
bin	246.04	0
bin	246.07333333333	0
bin	246.10666666667	0
bin	246.14	0
statistic RandomGeometricGraph.rgnv[10] 	arrivalPerc:histogram
field count 1
field mean 1
field stddev nan
field sum 1
field sqrsum 1
field min 1
field max 1
attr interpolationmode  none
attr source  count(arrival)
attr title  "arrival perc, histogram"
bin	-INF	0
bin	0	0
bin	1	1
bin	2	0
statistic RandomGeometricGraph.rgnv[11] 	arrivalTime:histogram
field count 1
field mean 377.96
field stddev nan
field sum 377.96
field sqrsum 142853.7616
field min 377.96
field max 377.96
attr interpolationmode  none
attr source  arrivalTime
attr title  "arrival time, histogram"
bin	-INF	0
bin	377.46	0
bin	377.49333333333	0
bin	377.52666666667	0
bin	377.56	0
bin	377.59333333333	0
bin	377.62666666667	0
bin	377.66	0
bin	377.69333333333	0
bin	377.72666666667	0
bin	377.76	0
bin	377.79333333333	0
bin	377.82666666667	0
bin	377.86	0
bin	377.89333333333	0
bin	377.92666666667	0
bin	377.96	1
bin	377.99333333333	0
bin	378.02666666667	0
bin	378.06	0
bin	378.09333333333	0
bin	378.12666666667	0
bin	378.16	0
bin	378.19333333333	0
bin	378.22666666667	0
bin	378.26	0
bin	378.29333333333	0
bin	378.32666666667	0
bin	378.36	0
bin	378.39333333333	0
bin	378.42666666667	0
bin	378.46	0
statistic RandomGeometricGraph.rgnv[11] 	arrivalPerc:histogram
field count 1
field mean 1
field stddev nan
field sum 1
field sqrsum 1
field min 1
field max 1
attr interpolationmode  none
attr source  count(arrival)
attr title  "arrival perc, histogram"
bin	-INF	0
bin	0	0
bin	1	1
bin	2	0
statistic RandomGeometricGraph.rgnv[12] 	arrivalTime:histogram
field count 1
field mean 54.934
field stddev nan
field sum 54.934
field sqrsum 3017.744356
field min 54.934
field max 54.934
attr interpolationmode  none
attr source  arrivalTime
attr title  "arrival time, histogram"
bin	-INF	0
bin	54.434	0
bin	54.467333333333	0
bin	54.500666666667	0
bin	54.534	0
bin	54.567333333333	0
bin	54.600666666667	0
bin	54.634	0
bin	54.667333333333	0
bin	54.700666666667	0
bin	54.734	0
bin	54.767333333333	0
bin	54.800666666667	0
bin	54.834	0
bin	54.867333333333	0
bin	54.900666666667	0
bin	54.934	1
bin	54.967333333333	0
bin	55.000666666667	0
bin	55.034	0
bin	55.067333333333	0
bin	55.100666666667	0
bin	55.134	0
bin	55.167333333333	0
bin	55.200666666667	0
bin	55.234	0
bin	55.267333333333	0
bin	55.300666666667	0
bin	55.334	0
bin	55.367333333333	0
bin	55.400666666667	0
bin	55.434	0
statistic RandomGeometricGraph.rgnv[12] 	arrivalPerc:histogram
field count 1
field mean 1
field stddev nan
field sum 1
field sqrsum 1
field min 1
field max 1
attr interpolationmode  none
attr source  count(arrival)
attr title  "arrival perc, histogram"
bin	-INF	0
bin	0	0
bin	1	1
bin	2	0
statistic RandomGeometricGraph.rgnv[13] 	arrivalTime:histogram
field count 1
field mean 145.581
field stddev nan
field sum 145.581
field sqrsum 21193.827561
field min 145.581
field max 145.581
attr interpolationmode  none
attr source  arrivalTime
attr title  "arrival time, histogram"
bin	-INF	0
bin	145.081	0
bin	145.11433333333	0
bin	145.14766666667	0
bin	145.181	0
bin	145.21433333333	0
bin	145.24766666667	0
bin	145.281	0
bin	145.31433333333	0
bin	145.34766666667	0
bin	145.381	0
bin	145.41433333333	0
bin	145.44766666667	0
bin	145.481	0
bin	145.51433333333	0
bin	145.54766666667	0
bin	145.581	1
bin	145.61433333333	0
bin	145.64766666667	0
bin	145.681	0
bin	145.71433333333	0
bin	145.74766666667	0
bin	145.781	0
bin	145.81433333333	0
bin	145.84766666667	0
bin	145.881	0
bin	145.91433333333	0
bin	145.94766666667	0
bin	145.981	0
bin	146.01433333333	0
bin	146.04766666667	0
bin	146.081	0
statistic RandomGeometricGraph.rgnv[13] 	arrivalPerc:histogram
field count 1
field mean 1
field stddev nan
field sum 1
field sqrsum 1
field min 1
field max 1
attr interpolationmode  none
attr source  count(arrival)
attr title  "arrival perc, histogram"
bin	-INF	0
bin	0	0
bin	1	1
bin	2	0
statistic RandomGeometricGraph.rgnv[14] 	arrivalTime:histogram
field count 1
field mean 213.957
field stddev nan
field sum 213.957
field sqrsum 45777.597849
field min 213.957
field max 213.957
attr interpolationmode  none
attr source  arrivalTime
attr title  "arrival time, histogram"
bin	-INF	0
bin	213.457	0
bin	213.49033333333	0
bin	213.52366666667	0
bin	213.557	0
bin	213.59033333333	0
bin	213.62366666667	0
bin	213.657	0
bin	213.69033333333	0
bin	213.72366666667	0
bin	213.757	0
bin	213.79033333333	0
bin	213.82366666667	0
bin	213.857	0
bin	213.89033333333	0
bin	213.92366666667	0
bin	213.957	1
bin	213.99033333333	0
bin	214.02366666667	0
bin	214.057	0
bin	214.09033333333	0
bin	214.12366666667	0
bin	214.157	0
bin	214.19033333333	0
bin	214.22366666667	0
bin	214.257	0
bin	214.29033333333	0
bin	214.32366666667	0
bin	214.357	0
bin	214.39033333333	0
bin	214.42366666667	0
bin	214.457	0
statistic RandomGeometricGraph.rgnv[14] 	arrivalPerc:histogram
field count 1
field mean 1
field stddev nan
field sum 1
field sqrsum 1
field min 1
field max 1
attr interpolationmode  none
attr source  count(arrival)
attr title  "arrival perc, histogram"
bin	-INF	0
bin	0	0
bin	1	1
bin	2	0
statistic RandomGeometricGraph.rgnv[15] 	arrivalTime:histogram
field count 1
field mean 160.033
field stddev nan
field sum 160.033
field sqrsum 25610.561089
field min 160.033
field max 160.033
attr interpolationmode  none
attr source  arrivalTime
attr title  "arrival time, histogram"
bin	-INF	0
bin	159.533	0
bin	159.56633333333	0
bin	159.59966666667	0
bin	159.633	0
bin	159.66633333333	0
bin	159.69966666667	0
bin	159.733	0
bin	159.76633333333	0
bin	159.79966666667	0
bin	159.833	0
bin	159.86633333333	0
bin	159.89966666667	0
bin	159.933	0
bin	159.96633333333	0
bin	159.99966666667	0
bin	160.033	1
bin	160.06633333333	0
bin	160.09966666667	0
bin	160.133	0
bin	160.16633333333	0
bin	160.19966666667	0
bin	160.233	0
bin	160.26633333333	0
bin	160.29966666667	0
bin	160.333	0
bin	160.36633333333	0
bin	160.39966666667	0
bin	160.433	0
bin	160.46633333333	0
bin	160.49966666667	0
bin	160.533	0
statistic RandomGeometricGraph.rgnv[15] 	arrivalPerc:histogram
field count 1
field mean 1
field stddev nan
field sum 1
field sqrsum 1
field min 1
field max 1
attr interpolationmode  none
attr source  count(arrival)
attr title  "arrival perc, histogram"
bin	-INF	0
bin	0	0
bin	1	1
bin	2	0
statistic RandomGeometricGraph.rgnv[16] 	arrivalTime:histogram
field count 1
field mean 72.175
field stddev nan
field sum 72.175
field sqrsum 5209.230625
field min 72.175
field max 72.175
attr interpolationmode  none
attr source  arrivalTime
attr title  "arrival time, histogram"
bin	-INF	0
bin	71.675	0
bin	71.708333333333	0
bin	71.741666666667	0
bin	71.775	0
bin	71.808333333333	0
bin	71.841666666667	0
bin	71.875	0
bin	71.908333333333	0
bin	71.941666666667	0
bin	71.975	0
bin	72.008333333333	0
bin	72.041666666667	0
bin	72.075	0
bin	72.108333333333	0
bin	72.141666666667	0
bin	72.175	1
bin	72.208333333333	0
bin	72.241666666667	0
bin	72.275	0
bin	72.308333333333	0
bin	72.341666666667	0
bin	72.375	0
bin	72.408333333333	0
bin	72.441666666667	0
bin	72.475	0
bin	72.508333333333	0
bin	72.541666666667	0
bin	72.575	0
bin	72.608333333333	0
bin	72.641666666667	0
bin	72.675	0
statistic RandomGeometricGraph.rgnv[16] 	arrivalPerc:histogram
field count 1
field mean 1
field stddev nan
field sum 1
field sqrsum 1
field min 1
field max 1
attr interpolationmode  none
attr source  count(arrival)
attr title  "arrival perc, histogram"
bin	-INF	0
bin	0	0
bin	1	1
bin	2	0
statistic RandomGeometricGraph.rgnv[17] 	arrivalTime:histogram
field count 1
field mean 160.023
field stddev nan
field sum 160.023
field sqrsum 25607.360529
field min 160.023
field max 160.023
attr interpolationmode  none
attr source  arrivalTime
attr title  "arrival time, histogram"
bin	-INF	0
bin	159.523	0
bin	159.55633333333	0
bin	159.58966666667	0
bin	159.623	0
bin	159.65633333333	0
bin	159.68966666667	0
bin	159.723	0
bin	159.75633333333	0
bin	159.78966666667	0
bin	159.823	0
bin	159.85633333333	0
bin	159.88966666667	0
bin	159.923	0
bin	159.95633333333	0
bin	159.98966666667	0
bin	160.023	1
bin	160.05633333333	0
bin	160.08966666667	0
bin	160.123	0
bin	160.15633333333	0
bin	160.18966666667	0
bin	160.223	0
bin	160.25633333333	0
bin	160.28966666667	0
bin	160.323	0
bin	160.35633333333	0
bin	160.38966666667	0
bin	160.423	0
bin	160.45633333333	0
bin	160.48966666667	0
bin	160.523	0
statistic RandomGeometricGraph.rgnv[17] 	arrivalPerc:histogram
field count 1
field mean 1
field stddev nan
field sum 1
field sqrsum 1
field min 1
field max 1
attr interpolationmode  none
attr source  count(arrival)
attr title  "arrival perc, histogram"
bin	-INF	0
bin	0	0
bin	1	1
bin	2	0
statistic RandomGeometricGraph.rgnv[18] 	arrivalTime:histogram
field count 1
field mean 184.505
field stddev nan
field sum 184.505
field sqrsum 34042.095025
field min 184.505
field max 184.505
attr interpolationmode  none
attr source  arrivalTime
attr title  "arrival time, histogram"
bin	-INF	0
bin	184.005	0
bin	184.03833333333	0
bin	184.07166666667	0
bin	184.105	0
bin	184.13833333333	0
bin	184.17166666667	0
bin	184.205	0
bin	184.23833333333	0
bin	184.27166666667	0
bin	184.305	0
bin	184.33833333333	0
bin	184.37166666667	0
bin	184.405	0
bin	184.43833333333	0
bin	184.47166666667	0
bin	184.505	1
bin	184.53833333333	0
bin	184.57166666667	0
bin	184.605	0
bin	184.63833333333	0
bin	184.67166666667	0
bin	184.705	0
bin	184.73833333333	0
bin	184.77166666667	0
bin	184.805	0
bin	184.83833333333	0
bin	184.87166666667	0
bin	184.905	0
bin	184.93833333333	0
bin	184.97166666667	0
bin	185.005	0
statistic RandomGeometricGraph.rgnv[18] 	arrivalPerc:histogram
field count 1
field mean 1
field stddev nan
field sum 1
field sqrsum 1
field min 1
field max 1
attr interpolationmode  none
attr source  count(arrival)
attr title  "arrival perc, histogram"
bin	-INF	0
bin	0	0
bin	1	1
bin	2	0
statistic RandomGeometricGraph.rgnv[19] 	arrivalTime:histogram
field count 1
field mean 311.815
field stddev nan
field sum 311.815
field sqrsum 97228.594225
field min 311.815
field max 311.815
attr interpolationmode  none
attr source  arrivalTime
attr title  "arrival time, histogram"
bin	-INF	0
bin	311.315	0
bin	311.34833333333	0
bin	311.38166666667	0
bin	311.415	0
bin	311.44833333333	0
bin	311.48166666667	0
bin	311.515	0
bin	311.54833333333	0
bin	311.58166666667	0
bin	311.615	0
bin	311.64833333333	0
bin	311.68166666667	0
bin	311.715	0
bin	311.74833333333	0
bin	311.78166666667	0
bin	311.815	1
bin	311.84833333333	0
bin	311.88166666667	0
bin	311.915	0
bin	311.94833333333	0
bin	311.98166666667	0
bin	312.015	0
bin	312.04833333333	0
bin	312.08166666667	0
bin	312.115	0
bin	312.14833333333	0
bin	312.18166666667	0
bin	312.215	0
bin	312.24833333333	0
bin	312.28166666667	0
bin	312.315	0
statistic RandomGeometricGraph.rgnv[19] 	arrivalPerc:histogram
field count 1
field mean 1
field stddev nan
field sum 1
field sqrsum 1
field min 1
field max 1
attr interpolationmode  none
attr source  count(arrival)
attr title  "arrival perc, histogram"
bin	-INF	0
bin	0	0
bin	1	1
bin	2	0
statistic RandomGeometricGraph.rgnv[20] 	arrivalTime:histogram
field count 1
field mean 182.274
field stddev nan
field sum 182.274
field sqrsum 33223.811076
field min 182.274
field max 182.274
attr interpolationmode  none
attr source  arrivalTime
attr title  "arrival time, histogram"
bin	-INF	0
bin	181.774	0
bin	181.80733333333	0
bin	181.84066666667	0
bin	181.874	0
bin	181.90733333333	0
bin	181.94066666667	0
bin	181.974	0
bin	182.00733333333	0
bin	182.04066666667	0
bin	182.074	0
bin	182.10733333333	0
bin	182.14066666667	0
bin	182.174	0
bin	182.20733333333	0
bin	182.24066666667	0
bin	182.274	1
bin	182.30733333333	0
bin	182.34066666667	0
bin	182.374	0
bin	182.40733333333	0
bin	182.44066666667	0
bin	182.474	0
bin	182.50733333333	0
bin	182.54066666667	0
bin	182.574	0
bin	182.60733333333	0
bin	182.64066666667	0
bin	182.674	0
bin	182.70733333333	0
bin	182.74066666667	0
bin	182.774	0
statistic RandomGeometricGraph.rgnv[20] 	arrivalPerc:histogram
field count 1
field mean 1
field stddev nan
field sum 1
field sqrsum 1
field min 1
field max 1
attr interpolationmode  none
attr source  count(arrival)
attr title  "arrival perc, histogram"
bin	-INF	0
bin	0	0
bin	1	1
bin	2	0
statistic RandomGeometricGraph.rgnv[21] 	arrivalTime:histogram
field count 1
field mean 91.637
field stddev nan
field sum 91.637
field sqrsum 8397.339769
field min 91.637
field max 91.637
attr interpolationmode  none
attr source  arrivalTime
attr title  "arrival time, histogram"
bin	-INF	0
bin	91.137	0
bin	91.170333333333	0
bin	91.203666666667	0
bin	91.237	0
bin	91.270333333333	0
bin	91.303666666667	0
bin	91.337	0
bin	91.370333333333	0
bin	91.403666666667	0
bin	91.437	0
bin	91.470333333333	0
bin	91.503666666667	0
bin	91.537	0
bin	91.570333333333	0
bin	91.603666666667	0
bin	91.637	1
bin	91.670333333333	0
bin	91.703666666667	0
bin	91.737	0
bin	91.770333333333	0
bin	91.803666666667	0
bin	91.837	0
bin	91.870333333333	0
bin	91.903666666667	0
bin	91.937	0
bin	91.970333333333	0
bin	92.003666666667	0
bin	92.037	0
bin	92.070333333333	0
bin	92.103666666667	0
bin	92.137	0
statistic RandomGeometricGraph.rgnv[21] 	arrivalPerc:histogram
field count 1
field mean 1
field stddev nan
field sum 1
field sqrsum 1
field min 1
field max 1
attr interpolationmode  none
attr source  count(arrival)
attr title  "arrival perc, histogram"
bin	-INF	0
bin	0	0
bin	1	1
bin	2	0
statistic RandomGeometricGraph.rgnv[22] 	arrivalTime:histogram
field count 1
field mean 221.198
field stddev nan
field sum 221.198
field sqrsum 48928.555204
field min 221.198
field max 221.198
attr interpolationmode  none
attr source  arrivalTime
attr title  "arrival time, histogram"
bin	-INF	0
bin	220.698	0
bin	220.73133333333	0
bin	220.76466666667	0
bin	220.798	0
bin	220.83133333333	0
bin	220.86466666667	0
bin	220.898	0
bin	220.93133333333	0
bin	220.96466666667	0
bin	220.998	0
bin	221.03133333333	0
bin	221.06466666667	0
bin	221.098	0
bin	221.13133333333	0
bin	221.16466666667	0
bin	221.198	1
bin	221.23133333333	0
bin	221.26466666667	0
bin	221.298	0
bin	221.33133333333	0
bin	221.36466666667	0
bin	221.398	0
bin	221.43133333333	0
bin	221.46466666667	0
bin	221.498	0
bin	221.53133333333	0
bin	221.56466666667	0
bin	221.598	0
bin	221.63133333333	0
bin	221.66466666667	0
bin	221.698	0
statistic RandomGeometricGraph.rgnv[22] 	arrivalPerc:histogram
field count 1
field mean 1
field stddev nan
field sum 1
field sqrsum 1
field min 1
field max 1
attr interpolationmode  none
attr source  count(arrival)
attr title  "arrival perc, histogram"
bin	-INF	0
bin	0	0
bin	1	1
bin	2	0
statistic RandomGeometricGraph.rgnv[23] 	arrivalTime:histogram
field count 1
field mean 172.274
field stddev nan
field sum 172.274
field sqrsum 29678.331076
field min 172.274
field max 172.274
attr interpolationmode  none
attr source  arrivalTime
attr title  "arrival time, histogram"
bin	-INF	0
bin	171.774	0
bin	171.80733333333	0
bin	171.84066666667	0
bin	171.874	0
bin	171.90733333333	0
bin	171.94066666667	0
bin	171.974	0
bin	172.00733333333	0
bin	172.04066666667	0
bin	172.074	0
bin	172.10733333333	0
bin	172.14066666667	0
bin	172.174	0
bin	172.20733333333	0
bin	172.24066666667	0
bin	172.274	1
bin	172.30733333333	0
bin	172.34066666667	0
bin	172.374	0
bin	172.40733333333	0
bin	172.44066666667	0
bin	172.474	0
bin	172.50733333333	0
bin	172.54066666667	0
bin	172.574	0
bin	172.60733333333	0
bin	172.64066666667	0
bin	172.674	0
bin	172.70733333333	0
bin	172.74066666667	0
bin	172.774	0
statistic RandomGeometricGraph.rgnv[23] 	arrivalPerc:histogram
field count 1
field mean 1
field stddev nan
field sum 1
field sqrsum 1
field min 1
field max 1
attr interpolationmode  none
attr source  count(arrival)
attr title  "arrival perc, histogram"
bin	-INF	0
bin	0	0
bin	1	1
bin	2	0
statistic RandomGeometricGraph.rgnv[24] 	arrivalTime:histogram
field count 1
field mean 49.924
field stddev nan
field sum 49.924
field sqrsum 2492.405776
field min 49.924
field max 49.924
attr interpolationmode  none
attr source  arrivalTime
attr title  "arrival time, histogram"
bin	-INF	0
bin	49.424	0
bin	49.457333333333	0
bin	49.490666666667	0
bin	49.524	0
bin	49.557333333333	0
bin	49.590666666667	0
bin	49.624	0
bin	49.657333333333	0
bin	49.690666666667	0
bin	49.724	0
bin	49.757333333333	0
bin	49.790666666667	0
bin	49.824	0
bin	49.857333333333	0
bin	49.890666666667	0
bin	49.924	1
bin	49.957333333333	0
bin	49.990666666667	0
bin	50.024	0
bin	50.057333333333	0
bin	50.090666666667	0
bin	50.124	0
bin	50.157333333333	0
bin	50.190666666667	0
bin	50.224	0
bin	50.257333333333	0
bin	50.290666666667	0
bin	50.324	0
bin	50.357333333333	0
bin	50.390666666667	0
bin	50.424	0
statistic RandomGeometricGraph.rgnv[24] 	arrivalPerc:histogram
field count 1
field mean 1
field stddev nan
field sum 1
field sqrsum 1
field min 1
field max 1
attr interpolationmode  none
attr source  count(arrival)
attr title  "arrival perc, histogram"
bin	-INF	0
bin	0	0
bin	1	1
bin	2	0
statistic RandomGeometricGraph.rgnv[25] 	arrivalTime:histogram
field count 1
field mean 116.109
field stddev nan
field sum 116.109
field sqrsum 13481.299881
field min 116.109
field max 116.109
attr interpolationmode  none
attr source  arrivalTime
attr title  "arrival time, histogram"
bin	-INF	0
bin	115.609	0
bin	115.64233333333	0
bin	115.67566666667	0
bin	115.709	0
bin	115.74233333333	0
bin	115.77566666667	0
bin	115.809	0
bin	115.84233333333	0
bin	115.87566666667	0
bin	115.909	0
bin	115.94233333333	0
bin	115.97566666667	0
bin	116.009	0
bin	116.04233333333	0
bin	116.07566666667	0
bin	116.109	1
bin	116.14233333333	0
bin	116.17566666667	0
bin	116.209	0
bin	116.24233333333	0
bin	116.27566666667	0
bin	116.309	0
bin	116.34233333333	0
bin	116.37566666667	0
bin	116.409	0
bin	116.44233333333	0
bin	116.47566666667	0
bin	116.509	0
bin	116.54233333333	0
bin	116.57566666667	0
bin	116.609	0
statistic RandomGeometricGraph.rgnv[25] 	arrivalPerc:histogram
field count 1
field mean 1
field stddev nan
field sum 1
field sqrsum 1
field min 1
field max 1
attr interpolationmode  none
attr source  count(arrival)
attr title  "arrival perc, histogram"
bin	-INF	0
bin	0	0
bin	1	1
bin	2	0
statistic RandomGeometricGraph.rgnv[26] 	arrivalTime:histogram
field count 1
field mean 184.495
field stddev nan
field sum 184.495
field sqrsum 34038.405025
field min 184.495
field max 184.495
attr interpolationmode  none
attr source  arrivalTime
attr title  "arrival time, histogram"
bin	-INF	0
bin	183.995	0
bin	184.02833333333	0
bin	184.06166666667	0
bin	184.095	0
bin	184.12833333333	0
bin	184.16166666667	0
bin	184.195	0
bin	184.22833333333	0
bin	184.26166666667	0
bin	184.295	0
bin	184.32833333333	0
bin	184.36166666667	0
bin	184.395	0
bin	184.42833333333	0
bin	184.46166666667	0
bin	184.495	1
bin	184.52833333333	0
bin	184.56166666667	0
bin	184.595	0
bin	184.62833333333	0
bin	184.66166666667	0
bin	184.695	0
bin	184.72833333333	0
bin	184.76166666667	0
bin	184.795	0
bin	184.82833333333	0
bin	184.86166666667	0
bin	184.895	0
bin	184.92833333333	0
bin	184.96166666667	0
bin	184.995	0
statistic RandomGeometricGraph.rgnv[26] 	arrivalPerc:histogram
field count 1
field mean 1
field stddev nan
field sum 1
field sqrsum 1
field min 1
field max 1
attr interpolationmode  none
attr source  count(arrival)
attr title  "arrival perc, histogram"
bin	-INF	0
bin	0	0
bin	1	1
bin	2	0
statistic RandomGeometricGraph.rgnv[27] 	arrivalTime:histogram
field count 1
field mean 353.498
field stddev nan
field sum 353.498
field sqrsum 124960.836004
field min 353.498
field max 353.498
attr interpolationmode  none
attr source  arrivalTime
attr title  "arrival time, histogram"
bin	-INF	0
bin	352.998	0
bin	353.03133333333	0
bin	353.06466666667	0
bin	353.098	0
bin	353.13133333333	0
bin	353.16466666667	0
bin	353.198	0
bin	353.23133333333	0
bin	353.26466666667	0
bin	353.298	0
bin	353.33133333333	0
bin	353.36466666667	0
bin	353.398	0
bin	353.43133333333	0
bin	353.46466666667	0
bin	353.498	1
bin	353.53133333333	0
bin	353.56466666667	0
bin	353.598	0
bin	353.63133333333	0
bin	353.66466666667	0
bin	353.698	0
bin	353.73133333333	0
bin	353.76466666667	0
bin	353.798	0
bin	353.83133333333	0
bin	353.86466666667	0
bin	353.898	0
bin	353.93133333333	0
bin	353.96466666667	0
bin	353.998	0
statistic RandomGeometricGraph.rgnv[27] 	arrivalPerc:histogram
field count 1
field mean 1
field stddev nan
field sum 1
field sqrsum 1
field min 1
field max 1
attr interpolationmode  none
attr source  count(arrival)
attr title  "arrival perc, histogram"
bin	-INF	0
bin	0	0
bin	1	1
bin	2	0
statistic RandomGeometricGraph.rgnv[28] 	arrivalTime:histogram
field count 1
field mean 74.416
field stddev nan
field sum 74.416
field sqrsum 5537.741056
field min 74.416
field max 74.416
attr interpolationmode  none
attr source  arrivalTime
attr title  "arrival time, histogram"
bin	-INF	0
bin	73.916	0
bin	73.949333333333	0
bin	73.982666666667	0
bin	74.016	0
bin	74.049333333333	0
bin	74.082666666667	0
bin	74.116	0
bin	74.149333333333	0
bin	74.182666666667	0
bin	74.216	0
bin	74.249333333333	0
bin	74.282666666667	0
bin	74.316	0
bin	74.349333333333	0
bin	74.382666666667	0
bin	74.416	1
bin	74.449333333333	0
bin	74.482666666667	0
bin	74.516	0
bin	74.549333333333	0
bin	74.582666666667	0
bin	74.616	0
bin	74.649333333333	0
bin	74.682666666667	0
bin	74.716	0
bin	74.749333333333	0
bin	74.782666666667	0
bin	74.816	0
bin	74.849333333333	0
bin	74.882666666667	0
bin	74.916	0
statistic RandomGeometricGraph.rgnv[28] 	arrivalPerc:histogram
field count 1
field mean 1
field stddev nan
field sum 1
field sqrsum 1
field min 1
field max 1
attr interpolationmode  none
attr source  count(arrival)
attr title  "arrival perc, histogram"
bin	-INF	0
bin	0	0
bin	1	1
bin	2	0
statistic RandomGeometricGraph.rgnv[29] 	arrivalTime:histogram
field count 1
field mean 128.33
field stddev nan
field sum 128.33
field sqrsum 16468.5889
field min 128.33
field max 128.33
attr interpolationmode  none
attr source  arrivalTime
attr title  "arrival time, histogram"
bin	-INF	0
bin	127.83	0
bin	127.86333333333	0
bin	127.89666666667	0
bin	127.93	0
bin	127.96333333333	0
bin	127.99666666667	0
bin	128.03	0
bin	128.06333333333	0
bin	128.09666666667	0
bin	128.13	0
bin	128.16333333333	0
bin	128.19666666667	0
bin	128.23	0
bin	128.26333333333	0
bin	128.29666666667	0
bin	128.33	1
bin	128.36333333333	0
bin	128.39666666667	0
bin	128.43	0
bin	128.46333333333	0
bin	128.49666666667	0
bin	128.53	0
bin	128.56333333333	0
bin	128.59666666667	0
bin	128.63	0
bin	128.66333333333	0
bin	128.69666666667	0
bin	128.73	0
bin	128.76333333333	0
bin	128.79666666667	0
bin	128.83	0
statistic RandomGeometricGraph.rgnv[29] 	arrivalPerc:histogram
field count 1
field mean 1
field stddev nan
field sum 1
field sqrsum 1
field min 1
field max 1
attr interpolationmode  none
attr source  count(arrival)
attr title  "arrival perc, histogram"
bin	-INF	0
bin	0	0
bin	1	1
bin	2	0
statistic RandomGeometricGraph.rgnv[30] 	arrivalTime:histogram
field count 1
field mean 135.581
field stddev nan
field sum 135.581
field sqrsum 18382.207561
field min 135.581
field max 135.581
attr interpolationmode  none
attr source  arrivalTime
attr title  "arrival time, histogram"
bin	-INF	0
bin	135.081	0
bin	135.11433333333	0
bin	135.14766666667	0
bin	135.181	0
bin	135.21433333333	0
bin	135.24766666667	0
bin	135.281	0
bin	135.31433333333	0
bin	135.34766666667	0
bin	135.381	0
bin	135.41433333333	0
bin	135.44766666667	0
bin	135.481	0
bin	135.51433333333	0
bin	135.54766666667	0
bin	135.581	1
bin	135.61433333333	0
bin	135.64766666667	0
bin	135.681	0
bin	135.71433333333	0
bin	135.74766666667	0
bin	135.781	0
bin	135.81433333333	0
bin	135.84766666667	0
bin	135.881	0
bin	135.91433333333	0
bin	135.94766666667	0
bin	135.981	0
bin	136.01433333333	0
bin	136.04766666667	0
bin	136.081	0
statistic RandomGeometricGraph.rgnv[30] 	arrivalPerc:histogram
field count 1
field mean 1
field stddev nan
field sum 1
field sqrsum 1
field min 1
field max 1
attr interpolationmode  none
attr source  count(arrival)
attr title  "arrival perc, histogram"
bin	-INF	0
bin	0	0
bin	1	1
bin	2	0
statistic RandomGeometricGraph.rgnv[31] 	arrivalTime:histogram
field count 1
field mean 74.396
field stddev nan
field sum 74.396
field sqrsum 5534.764816
field min 74.396
field max 74.396
attr interpolationmode  none
attr source  arrivalTime
attr title  "arrival time, histogram"
bin	-INF	0
bin	73.896	0
bin	73.929333333333	0
bin	73.962666666667	0
bin	73.996	0
bin	74.029333333333	0
bin	74.062666666667	0
bin	74.096	0
bin	74.129333333333	0
bin	74.162666666667	0
bin	74.196	0
bin	74.229333333333	0
bin	74.262666666667	0
bin	74.296	0
bin	74.329333333333	0
bin	74.362666666667	0
bin	74.396	1
bin	74.429333333333	0
bin	74.462666666667	0
bin	74.496	0
bin	74.529333333333	0
bin	74.562666666667	0
bin	74.596	0
bin	74.629333333333	0
bin	74.662666666667	0
bin	74.696	0
bin	74.729333333333	0
bin	74.762666666667	0
bin	74.796	0
bin	74.829333333333	0
bin	74.862666666667	0
bin	74.896	0
statistic RandomGeometricGraph.rgnv[31] 	arrivalPerc:histogram
field count 1
field mean 1
field stddev nan
field sum 1
field sqrsum 1
field min 1
field max 1
attr interpolationmode  none
attr source  count(arrival)
attr title  "arrival perc, histogram"
bin	-INF	0
bin	0	0
bin	1	1
bin	2	0
statistic RandomGeometricGraph.rgnv[32] 	arrivalTime:histogram
field count 1
field mean 196.706
field stddev nan
field sum 196.706
field sqrsum 38693.250436
field min 196.706
field max 196.706
attr interpolationmode  none
attr source  arrivalTime
attr title  "arrival time, histogram"
bin	-INF	0
bin	196.206	0
bin	196.23933333333	0
bin	196.27266666667	0
bin	196.306	0
bin	196.33933333333	0
bin	196.37266666667	0
bin	196.406	0
bin	196.43933333333	0
bin	196.47266666667	0
bin	196.506	0
bin	196.53933333333	0
bin	196.57266666667	0
bin	196.606	0
bin	196.63933333333	0
bin	196.67266666667	0
bin	196.706	1
bin	196.73933333333	0
bin	196.77266666667	0
bin	196.806	0
bin	196.83933333333	0
bin	196.87266666667	0
bin	196.906	0
bin	196.93933333333	0
bin	196.97266666667	0
bin	197.006	0
bin	197.03933333333	0
bin	197.07266666667	0
bin	197.106	0
bin	197.13933333333	0
bin	197.17266666667	0
bin	197.206	0
statistic RandomGeometricGraph.rgnv[32] 	arrivalPerc:histogram
field count 1
field mean 1
field stddev nan
field sum 1
field sqrsum 1
field min 1
field max 1
attr interpolationmode  none
attr source  count(arrival)
attr title  "arrival perc, histogram"
bin	-INF	0
bin	0	0
bin	1	1
bin	2	0
statistic RandomGeometricGraph.rgnv[33] 	arrivalTime:histogram
field count 1
field mean 262.881
field stddev nan
field sum 262.881
field sqrsum 69106.420161
field min 262.881
field max 262.881
attr interpolationmode  none
attr source  arrivalTime
attr title  "arrival time, histogram"
bin	-INF	0
bin	262.381	0
bin	262.41433333333	0
bin	262.44766666667	0
bin	262.481	0
bin	262.51433333333	0
bin	262.54766666667	0
bin	262.581	0
bin	262.61433333333	0
bin	262.64766666667	0
bin	262.681	0
bin	262.71433333333	0
bin	262.74766666667	0
bin	262.781	0
bin	262.81433333333	0
bin	262.84766666667	0
bin	262.881	1
bin	262.91433333333	0
bin	262.94766666667	0
bin	262.981	0
bin	263.01433333333	0
bin	263.04766666667	0
bin	263.081	0
bin	263.11433333333	0
bin	263.14766666667	0
bin	263.181	0
bin	263.21433333333	0
bin	263.24766666667	0
bin	263.281	0
bin	263.31433333333	0
bin	263.34766666667	0
bin	263.381	0
statistic RandomGeometricGraph.rgnv[33] 	arrivalPerc:histogram
field count 1
field mean 1
field stddev nan
field sum 1
field sqrsum 1
field min 1
field max 1
attr interpolationmode  none
attr source  count(arrival)
attr title  "arrival perc, histogram"
bin	-INF	0
bin	0	0
bin	1	1
bin	2	0
statistic RandomGeometricGraph.rgnv[34] 	arrivalTime:histogram
field count 1
field mean 267.881
field stddev nan
field sum 267.881
field sqrsum 71760.230161
field min 267.881
field max 267.881
attr interpolationmode  none
attr source  arrivalTime
attr title  "arrival time, histogram"
bin	-INF	0
bin	267.381	0
bin	267.41433333333	0
bin	267.44766666667	0
bin	267.481	0
bin	267.51433333333	0
bin	267.54766666667	0
bin	267.581	0
bin	267.61433333333	0
bin	267.64766666667	0
bin	267.681	0
bin	267.71433333333	0
bin	267.74766666667	0
bin	267.781	0
bin	267.81433333333	0
bin	267.84766666667	0
bin	267.881	1
bin	267.91433333333	0
bin	267.94766666667	0
bin	267.981	0
bin	268.01433333333	0
bin	268.04766666667	0
bin	268.081	0
bin	268.11433333333	0
bin	268.14766666667	0
bin	268.181	0
bin	268.21433333333	0
bin	268.24766666667	0
bin	268.281	0
bin	268.31433333333	0
bin	268.34766666667	0
bin	268.381	0
statistic RandomGeometricGraph.rgnv[34] 	arrivalPerc:histogram
field count 1
field mean 1
field stddev nan
field sum 1
field sqrsum 1
field min 1
field max 1
attr interpolationmode  none
attr source  count(arrival)
attr title  "arrival perc, histogram"
bin	-INF	0
bin	0	0
bin	1	1
bin	2	0
statistic RandomGeometricGraph.rgnv[35] 	arrivalTime:histogram
field count 1
field mean 213.967
field stddev nan
field sum 213.967
field sqrsum 45781.877089
field min 213.967
field max 213.967
attr interpolationmode  none
attr source  arrivalTime
attr title  "arrival time, histogram"
bin	-INF	0
bin	213.467	0
bin	213.50033333333	0
bin	213.53366666667	0
bin	213.567	0
bin	213.60033333333	0
bin	213.63366666667	0
bin	213.667	0
bin	213.70033333333	0
bin	213.73366666667	0
bin	213.767	0
bin	213.80033333333	0
bin	213.83366666667	0
bin	213.867	0
bin	213.90033333333	0
bin	213.93366666667	0
bin	213.967	1
bin	214.00033333333	0
bin	214.03366666667	0
bin	214.067	0
bin	214.10033333333	0
bin	214.13366666667	0
bin	214.167	0
bin	214.20033333333	0
bin	214.23366666667	0
bin	214.267	0
bin	214.30033333333	0
bin	214.33366666667	0
bin	214.367	0
bin	214.40033333333	0
bin	214.43366666667	0
bin	214.467	0
statistic RandomGeometricGraph.rgnv[35] 	arrivalPerc:histogram
field count 1
field mean 1
field stddev nan
field sum 1
field sqrsum 1
field min 1
field max 1
attr interpolationmode  none
attr source  count(arrival)
attr title  "arrival perc, histogram"
bin	-INF	0
bin	0	0
bin	1	1
bin	2	0
statistic RandomGeometricGraph.rgnv[36] 	arrivalTime:histogram
field count 1
field mean 306.805
field stddev nan
field sum 306.805
field sqrsum 94129.308025
field min 306.805
field max 306.805
attr interpolationmode  none
attr source  arrivalTime
attr title  "arrival time, histogram"
bin	-INF	0
bin	306.305	0
bin	306.33833333333	0
bin	306.37166666667	0
bin	306.405	0
bin	306.43833333333	0
bin	306.47166666667	0
bin	306.505	0
bin	306.53833333333	0
bin	306.57166666667	0
bin	306.605	0
bin	306.63833333333	0
bin	306.67166666667	0
bin	306.705	0
bin	306.73833333333	0
bin	306.77166666667	0
bin	306.805	1
bin	306.83833333333	0
bin	306.87166666667	0
bin	306.905	0
bin	306.93833333333	0
bin	306.97166666667	0
bin	307.005	0
bin	307.03833333333	0
bin	307.07166666667	0
bin	307.105	0
bin	307.13833333333	0
bin	307.17166666667	0
bin	307.205	0
bin	307.23833333333	0
bin	307.27166666667	0
bin	307.305	0
statistic RandomGeometricGraph.rgnv[36] 	arrivalPerc:histogram
field count 1
field mean 1
field stddev nan
field sum 1
field sqrsum 1
field min 1
field max 1
attr interpolationmode  none
attr source  count(arrival)
attr title  "arrival perc, histogram"
bin	-INF	0
bin	0	0
bin	1	1
bin	2	0
statistic RandomGeometricGraph.rgnv[37] 	arrivalTime:histogram
field count 1
field mean 184.495
field stddev nan
field sum 184.495
field sqrsum 34038.405025
field min 184.495
field max 184.495
attr interpolationmode  none
attr source  arrivalTime
attr title  "arrival time, histogram"
bin	-INF	0
bin	183.995	0
bin	184.02833333333	0
bin	184.06166666667	0
bin	184.095	0
bin	184.12833333333	0
bin	184.16166666667	0
bin	184.195	0
bin	184.22833333333	0
bin	184.26166666667	0
bin	184.295	0
bin	184.32833333333	0
bin	184.36166666667	0
bin	184.395	0
bin	184.42833333333	0
bin	184.46166666667	0
bin	184.495	1
bin	184.52833333333	0
bin	184.56166666667	0
bin	184.595	0
bin	184.62833333333	0
bin	184.66166666667	0
bin	184.695	0
bin	184.72833333333	0
bin	184.76166666667	0
bin	184.795	0
bin	184.82833333333	0
bin	184.86166666667	0
bin	184.895	0
bin	184.92833333333	0
bin	184.96166666667	0
bin	184.995	0
statistic RandomGeometricGraph.rgnv[37] 	arrivalPerc:histogram
field count 1
field mean 1
field stddev nan
field sum 1
field sqrsum 1
field min 1
field max 1
attr interpolationmode  none
attr source  count(arrival)
attr title  "arrival perc, histogram"
bin	-INF	0
bin	0	0
bin	1	1
bin	2	0
statistic RandomGeometricGraph.rgnv[38] 	arrivalTime:histogram
field count 1
field mean 172.254
field stddev nan
field sum 172.254
field sqrsum 29671.440516
field min 172.254
field max 172.254
attr interpolationmode  none
attr source  arrivalTime
attr title  "arrival time, histogram"
bin	-INF	0
bin	171.754	0
bin	171.78733333333	0
bin	171.82066666667	0
bin	171.854	0
bin	171.88733333333	0
bin	171.92066666667	0
bin	171.954	0
bin	171.98733333333	0
bin	172.02066666667	0
bin	172.054	0
bin	172.08733333333	0
bin	172.12066666667	0
bin	172.154	0
bin	172.18733333333	0
bin	172.22066666667	0
bin	172.254	1
bin	172.28733333333	0
bin	172.32066666667	0
bin	172.354	0
bin	172.38733333333	0
bin	172.42066666667	0
bin	172.454	0
bin	172.48733333333	0
bin	172.52066666667	0
bin	172.554	0
bin	172.58733333333	0
bin	172.62066666667	0
bin	172.654	0
bin	172.68733333333	0
bin	172.72066666667	0
bin	172.754	0
statistic RandomGeometricGraph.rgnv[38] 	arrivalPerc:histogram
field count 1
field mean 1
field stddev nan
field sum 1
field sqrsum 1
field min 1
field max 1
attr interpolationmode  none
attr source  count(arrival)
attr title  "arrival perc, histogram"
bin	-INF	0
bin	0	0
bin	1	1
bin	2	0
statistic RandomGeometricGraph.rgnv[39] 	arrivalTime:histogram
field count 1
field mean 316.825
field stddev nan
field sum 316.825
field sqrsum 100378.080625
field min 316.825
field max 316.825
attr interpolationmode  none
attr source  arrivalTime
attr title  "arrival time, histogram"
bin	-INF	0
bin	316.325	0
bin	316.35833333333	0
bin	316.39166666667	0
bin	316.425	0
bin	316.45833333333	0
bin	316.49166666667	0
bin	316.525	0
bin	316.55833333333	0
bin	316.59166666667	0
bin	316.625	0
bin	316.65833333333	0
bin	316.69166666667	0
bin	316.725	0
bin	316.75833333333	0
bin	316.79166666667	0
bin	316.825	1
bin	316.85833333333	0
bin	316.89166666667	0
bin	316.925	0
bin	316.95833333333	0
bin	316.99166666667	0
bin	317.025	0
bin	317.05833333333	0
bin	317.09166666667	0
bin	317.125	0
bin	317.15833333333	0
bin	317.19166666667	0
bin	317.225	0
bin	317.25833333333	0
bin	317.29166666667	0
bin	317.325	0
statistic RandomGeometricGraph.rgnv[39] 	arrivalPerc:histogram
field count 1
field mean 1
field stddev nan
field sum 1
field sqrsum 1
field min 1
field max 1
attr interpolationmode  none
attr source  count(arrival)
attr title  "arrival perc, histogram"
bin	-INF	0
bin	0	0
bin	1	1
bin	2	0
statistic RandomGeometricGraph.rgnv[40] 	arrivalTime:histogram
field count 1
field mean 77.185
field stddev nan
field sum 77.185
field sqrsum 5957.524225
field min 77.185
field max 77.185
attr interpolationmode  none
attr source  arrivalTime
attr title  "arrival time, histogram"
bin	-INF	0
bin	76.685	0
bin	76.718333333333	0
bin	76.751666666667	0
bin	76.785	0
bin	76.818333333333	0
bin	76.851666666667	0
bin	76.885	0
bin	76.918333333333	0
bin	76.951666666667	0
bin	76.985	0
bin	77.018333333333	0
bin	77.051666666667	0
bin	77.085	0
bin	77.118333333333	0
bin	77.151666666667	0
bin	77.185	1
bin	77.218333333333	0
bin	77.251666666667	0
bin	77.285	0
bin	77.318333333333	0
bin	77.351666666667	0
bin	77.385	0
bin	77.418333333333	0
bin	77.451666666667	0
bin	77.485	0
bin	77.518333333333	0
bin	77.551666666667	0
bin	77.585	0
bin	77.618333333333	0
bin	77.651666666667	0
bin	77.685	0
statistic RandomGeometricGraph.rgnv[40] 	arrivalPerc:histogram
field count 1
field mean 1
field stddev nan
field sum 1
field sqrsum 1
field min 1
field max 1
attr interpolationmode  none
attr source  count(arrival)
attr title  "arrival perc, histogram"
bin	-INF	0
bin	0	0
bin	1	1
bin	2	0
statistic RandomGeometricGraph.rgnv[41] 	arrivalTime:histogram
field count 1
field mean 208.957
field stddev nan
field sum 208.957
field sqrsum 43663.027849
field min 208.957
field max 208.957
attr interpolationmode  none
attr source  arrivalTime
attr title  "arrival time, histogram"
bin	-INF	0
bin	208.457	0
bin	208.49033333333	0
bin	208.52366666667	0
bin	208.557	0
bin	208.59033333333	0
bin	208.62366666667	0
bin	208.657	0
bin	208.69033333333	0
bin	208.72366666667	0
bin	208.757	0
bin	208.79033333333	0
bin	208.82366666667	0
bin	208.857	0
bin	208.89033333333	0
bin	208.92366666667	0
bin	208.957	1
bin	208.99033333333	0
bin	209.02366666667	0
bin	209.057	0
bin	209.09033333333	0
bin	209.12366666667	0
bin	209.157	0
bin	209.19033333333	0
bin	209.22366666667	0
bin	209.257	0
bin	209.29033333333	0
bin	209.32366666667	0
bin	209.357	0
bin	209.39033333333	0
bin	209.42366666667	0
bin	209.457	0
statistic RandomGeometricGraph.rgnv[41] 	arrivalPerc:histogram
field count 1
field mean 1
field stddev nan
field sum 1
field sqrsum 1
field min 1
field max 1
attr interpolationmode  none
attr source  count(arrival)
attr title  "arrival perc, histogram"
bin	-INF	0
bin	0	0
bin	1	1
bin	2	0
statistic RandomGeometricGraph.rgnv[42] 	arrivalTime:histogram
field count 1
field mean 306.795
field stddev nan
field sum 306.795
field sqrsum 94123.172025
field min 306.795
field max 306.795
attr interpolationmode  none
attr source  arrivalTime
attr title  "arrival time, histogram"
bin	-INF	0
bin	306.295	0
bin	306.32833333333	0
bin	306.36166666667	0
bin	306.395	0
bin	306.42833333333	0
bin	306.46166666667	0
bin	306.495	0
bin	306.52833333333	0
bin	306.56166666667	0
bin	306.595	0
bin	306.62833333333	0
bin	306.66166666667	0
bin	306.695	0
bin	306.72833333333	0
bin	306.76166666667	0
bin	306.795	1
bin	306.82833333333	0
bin	306.86166666667	0
bin	306.895	0
bin	306.92833333333	0
bin	306.96166666667	0
bin	306.995	0
bin	307.02833333333	0
bin	307.06166666667	0
bin	307.095	0
bin	307.12833333333	0
bin	307.16166666667	0
bin	307.195	0
bin	307.22833333333	0
bin	307.26166666667	0
bin	307.295	0
statistic RandomGeometricGraph.rgnv[42] 	arrivalPerc:histogram
field count 1
field mean 1
field stddev nan
field sum 1
field sqrsum 1
field min 1
field max 1
attr interpolationmode  none
attr source  count(arrival)
attr title  "arrival perc, histogram"
bin	-INF	0
bin	0	0
bin	1	1
bin	2	0
statistic RandomGeometricGraph.rgnv[43] 	arrivalTime:histogram
field count 1
field mean 86.627
field stddev nan
field sum 86.627
field sqrsum 7504.237129
field min 86.627
field max 86.627
attr interpolationmode  none
attr source  arrivalTime
attr title  "arrival time, histogram"
bin	-INF	0
bin	86.127	0
bin	86.160333333333	0
bin	86.193666666667	0
bin	86.227	0
bin	86.260333333333	0
bin	86.293666666667	0
bin	86.327	0
bin	86.360333333333	0
bin	86.393666666667	0
bin	86.427	0
bin	86.460333333333	0
bin	86.493666666667	0
bin	86.527	0
bin	86.560333333333	0
bin	86.593666666667	0
bin	86.627	1
bin	86.660333333333	0
bin	86.693666666667	0
bin	86.727	0
bin	86.760333333333	0
bin	86.793666666667	0
bin	86.827	0
bin	86.860333333333	0
bin	86.893666666667	0
bin	86.927	0
bin	86.960333333333	0
bin	86.993666666667	0
bin	87.027	0
bin	87.060333333333	0
bin	87.093666666667	0
bin	87.127	0
statistic RandomGeometricGraph.rgnv[43] 	arrivalPerc:histogram
field count 1
field mean 1
field stddev nan
field sum 1
field sqrsum 1
field min 1
field max 1
attr interpolationmode  none
attr source  count(arrival)
attr title  "arrival perc, histogram"
bin	-INF	0
bin	0	0
bin	1	1
bin	2	0
statistic RandomGeometricGraph.rgnv[44] 	arrivalTime:histogram
field count 1
field mean 118.878
field stddev nan
field sum 118.878
field sqrsum 14131.978884
field min 118.878
field max 118.878
attr interpolationmode  none
attr source  arrivalTime
attr title  "arrival time, histogram"
bin	-INF	0
bin	118.378	0
bin	118.41133333333	0
bin	118.44466666667	0
bin	118.478	0
bin	118.51133333333	0
bin	118.54466666667	0
bin	118.578	0
bin	118.61133333333	0
bin	118.64466666667	0
bin	118.678	0
bin	118.71133333333	0
bin	118.74466666667	0
bin	118.778	0
bin	118.81133333333	0
bin	118.84466666667	0
bin	118.878	1
bin	118.91133333333	0
bin	118.94466666667	0
bin	118.978	0
bin	119.01133333333	0
bin	119.04466666667	0
bin	119.078	0
bin	119.11133333333	0
bin	119.14466666667	0
bin	119.178	0
bin	119.21133333333	0
bin	119.24466666667	0
bin	119.278	0
bin	119.31133333333	0
bin	119.34466666667	0
bin	119.378	0
statistic RandomGeometricGraph.rgnv[44] 	arrivalPerc:histogram
field count 1
field mean 1
field stddev nan
field sum 1
field sqrsum 1
field min 1
field max 1
attr interpolationmode  none
attr source  count(arrival)
attr title  "arrival perc, histogram"
bin	-INF	0
bin	0	0
bin	1	1
bin	2	0
statistic RandomGeometricGraph.rgnv[45] 	arrivalTime:histogram
field count 1
field mean 250.64
field stddev nan
field sum 250.64
field sqrsum 62820.4096
field min 250.64
field max 250.64
attr interpolationmode  none
attr source  arrivalTime
attr title  "arrival time, histogram"
bin	-INF	0
bin	250.14	0
bin	250.17333333333	0
bin	250.20666666667	0
bin	250.24	0
bin	250.27333333333	0
bin	250.30666666667	0
bin	250.34	0
bin	250.37333333333	0
bin	250.40666666667	0
bin	250.44	0
bin	250.47333333333	0
bin	250.50666666667	0
bin	250.54	0
bin	250.57333333333	0
bin	250.60666666667	0
bin	250.64	1
bin	250.67333333333	0
bin	250.70666666667	0
bin	250.74	0
bin	250.77333333333	0
bin	250.80666666667	0
bin	250.84	0
bin	250.87333333333	0
bin	250.90666666667	0
bin	250.94	0
bin	250.97333333333	0
bin	251.00666666667	0
bin	251.04	0
bin	251.07333333333	0
bin	251.10666666667	0
bin	251.14	0
statistic RandomGeometricGraph.rgnv[45] 	arrivalPerc:histogram
field count 1
field mean 1
field stddev nan
field sum 1
field sqrsum 1
field min 1
field max 1
attr interpolationmode  none
attr source  count(arrival)
attr title  "arrival perc, histogram"
bin	-INF	0
bin	0	0
bin	1	1
bin	2	0
statistic RandomGeometricGraph.rgnv[46] 	arrivalTime:histogram
field count 1
field mean 123.33
field stddev nan
field sum 123.33
field sqrsum 15210.2889
field min 123.33
field max 123.33
attr interpolationmode  none
attr source  arrivalTime
attr title  "arrival time, histogram"
bin	-INF	0
bin	122.83	0
bin	122.86333333333	0
bin	122.89666666667	0
bin	122.93	0
bin	122.96333333333	0
bin	122.99666666667	0
bin	123.03	0
bin	123.06333333333	0
bin	123.09666666667	0
bin	123.13	0
bin	123.16333333333	0
bin	123.19666666667	0
bin	123.23	0
bin	123.26333333333	0
bin	123.29666666667	0
bin	123.33	1
bin	123.36333333333	0
bin	123.39666666667	0
bin	123.43	0
bin	123.46333333333	0
bin	123.49666666667	0
bin	123.53	0
bin	123.56333333333	0
bin	123.59666666667	0
bin	123.63	0
bin	123.66333333333	0
bin	123.69666666667	0
bin	123.73	0
bin	123.76333333333	0
bin	123.79666666667	0
bin	123.83	0
statistic RandomGeometricGraph.rgnv[46] 	arrivalPerc:histogram
field count 1
field mean 1
field stddev nan
field sum 1
field sqrsum 1
field min 1
field max 1
attr interpolationmode  none
attr source  count(arrival)
attr title  "arrival perc, histogram"
bin	-INF	0
bin	0	0
bin	1	1
bin	2	0
statistic RandomGeometricGraph.rgnv[47] 	arrivalTime:histogram
field count 1
field mean 62.155
field stddev nan
field sum 62.155
field sqrsum 3863.244025
field min 62.155
field max 62.155
attr interpolationmode  none
attr source  arrivalTime
attr title  "arrival time, histogram"
bin	-INF	0
bin	61.655	0
bin	61.688333333333	0
bin	61.721666666667	0
bin	61.755	0
bin	61.788333333333	0
bin	61.821666666667	0
bin	61.855	0
bin	61.888333333333	0
bin	61.921666666667	0
bin	61.955	0
bin	61.988333333333	0
bin	62.021666666667	0
bin	62.055	0
bin	62.088333333333	0
bin	62.121666666667	0
bin	62.155	1
bin	62.188333333333	0
bin	62.221666666667	0
bin	62.255	0
bin	62.288333333333	0
bin	62.321666666667	0
bin	62.355	0
bin	62.388333333333	0
bin	62.421666666667	0
bin	62.455	0
bin	62.488333333333	0
bin	62.521666666667	0
bin	62.555	0
bin	62.588333333333	0
bin	62.621666666667	0
bin	62.655	0
statistic RandomGeometricGraph.rgnv[47] 	arrivalPerc:histogram
field count 1
field mean 1
field stddev nan
field sum 1
field sqrsum 1
field min 1
field max 1
attr interpolationmode  none
attr source  count(arrival)
attr title  "arrival perc, histogram"
bin	-INF	0
bin	0	0
bin	1	1
bin	2	0
statistic RandomGeometricGraph.rgnv[48] 	arrivalTime:histogram
field count 1
field mean 196.736
field stddev nan
field sum 196.736
field sqrsum 38705.053696
field min 196.736
field max 196.736
attr interpolationmode  none
attr source  arrivalTime
attr title  "arrival time, histogram"
bin	-INF	0
bin	196.236	0
bin	196.26933333333	0
bin	196.30266666667	0
bin	196.336	0
bin	196.36933333333	0
bin	196.40266666667	0
bin	196.436	0
bin	196.46933333333	0
bin	196.50266666667	0
bin	196.536	0
bin	196.56933333333	0
bin	196.60266666667	0
bin	196.636	0
bin	196.66933333333	0
bin	196.70266666667	0
bin	196.736	1
bin	196.76933333333	0
bin	196.80266666667	0
bin	196.836	0
bin	196.86933333333	0
bin	196.90266666667	0
bin	196.936	0
bin	196.96933333333	0
bin	197.00266666667	0
bin	197.036	0
bin	197.06933333333	0
bin	197.10266666667	0
bin	197.136	0
bin	197.16933333333	0
bin	197.20266666667	0
bin	197.236	0
statistic RandomGeometricGraph.rgnv[48] 	arrivalPerc:histogram
field count 1
field mean 1
field stddev nan
field sum 1
field sqrsum 1
field min 1
field max 1
attr interpolationmode  none
attr source  count(arrival)
attr title  "arrival perc, histogram"
bin	-INF	0
bin	0	0
bin	1	1
bin	2	0
statistic RandomGeometricGraph.rgnv[49] 	arrivalTime:histogram
field count 1
field mean 267.881
field stddev nan
field sum 267.881
field sqrsum 71760.230161
field min 267.881
field max 267.881
attr interpolationmode  none
attr source  arrivalTime
attr title  "arrival time, histogram"
bin	-INF	0
bin	267.381	0
bin	267.41433333333	0
bin	267.44766666667	0
bin	267.481	0
bin	267.51433333333	0
bin	267.54766666667	0
bin	267.581	0
bin	267.61433333333	0
bin	267.64766666667	0
bin	267.681	0
bin	267.71433333333	0
bin	267.74766666667	0
bin	267.781	0
bin	267.81433333333	0
bin	267.84766666667	0
bin	267.881	1
bin	267.91433333333	0
bin	267.94766666667	0
bin	267.981	0
bin	268.01433333333	0
bin	268.04766666667	0
bin	268.081	0
bin	268.11433333333	0
bin	268.14766666667	0
bin	268.181	0
bin	268.21433333333	0
bin	268.24766666667	0
bin	268.281	0
bin	268.31433333333	0
bin	268.34766666667	0
bin	268.381	0
statistic RandomGeometricGraph.rgnv[49] 	arrivalPerc:histogram
field count 1
field mean 1
field stddev nan
field sum 1
field sqrsum 1
field min 1
field max 1
attr interpolationmode  none
attr source  count(arrival)
attr title  "arrival perc, histogram"
bin	-INF	0
bin	0	0
bin	1	1
bin	2	0
statistic RandomGeometricGraph.rgnv[50] 	arrivalTime:histogram
field count 1
field mean 395.211
field stddev nan
field sum 395.211
field sqrsum 156191.734521
field min 395.211
field max 395.211
attr interpolationmode  none
attr source  arrivalTime
attr title  "arrival time, histogram"
bin	-INF	0
bin	394.711	0
bin	394.74433333333	0
bin	394.77766666667	0
bin	394.811	0
bin	394.84433333333	0
bin	394.87766666667	0
bin	394.911	0
bin	394.94433333333	0
bin	394.97766666667	0
bin	395.011	0
bin	395.04433333333	0
bin	395.07766666667	0
bin	395.111	0
bin	395.14433333333	0
bin	395.17766666667	0
bin	395.211	1
bin	395.24433333333	0
bin	395.27766666667	0
bin	395.311	0
bin	395.34433333333	0
bin	395.37766666667	0
bin	395.411	0
bin	395.44433333333	0
bin	395.47766666667	0
bin	395.511	0
bin	395.54433333333	0
bin	395.57766666667	0
bin	395.611	0
bin	395.64433333333	0
bin	395.67766666667	0
bin	395.711	0
statistic RandomGeometricGraph.rgnv[50] 	arrivalPerc:histogram
field count 1
field mean 1
field stddev nan
field sum 1
field sqrsum 1
field min 1
field max 1
attr interpolationmode  none
attr source  count(arrival)
attr title  "arrival perc, histogram"
bin	-INF	0
bin	0	0
bin	1	1
bin	2	0
statistic RandomGeometricGraph.rgnv[51] 	arrivalTime:histogram
field count 1
field mean 299.574
field stddev nan
field sum 299.574
field sqrsum 89744.581476
field min 299.574
field max 299.574
attr interpolationmode  none
attr source  arrivalTime
attr title  "arrival time, histogram"
bin	-INF	0
bin	299.074	0
bin	299.10733333333	0
bin	299.14066666667	0
bin	299.174	0
bin	299.20733333333	0
bin	299.24066666667	0
bin	299.274	0
bin	299.30733333333	0
bin	299.34066666667	0
bin	299.374	0
bin	299.40733333333	0
bin	299.44066666667	0
bin	299.474	0
bin	299.50733333333	0
bin	299.54066666667	0
bin	299.574	1
bin	299.60733333333	0
bin	299.64066666667	0
bin	299.674	0
bin	299.70733333333	0
bin	299.74066666667	0
bin	299.774	0
bin	299.80733333333	0
bin	299.84066666667	0
bin	299.874	0
bin	299.90733333333	0
bin	299.94066666667	0
bin	299.974	0
bin	300.00733333333	0
bin	300.04066666667	0
bin	300.074	0
statistic RandomGeometricGraph.rgnv[51] 	arrivalPerc:histogram
field count 1
field mean 1
field stddev nan
field sum 1
field sqrsum 1
field min 1
field max 1
attr interpolationmode  none
attr source  count(arrival)
attr title  "arrival perc, histogram"
bin	-INF	0
bin	0	0
bin	1	1
bin	2	0
statistic RandomGeometricGraph.rgnv[52] 	arrivalTime:histogram
field count 1
field mean 336.287
field stddev nan
field sum 336.287
field sqrsum 113088.946369
field min 336.287
field max 336.287
attr interpolationmode  none
attr source  arrivalTime
attr title  "arrival time, histogram"
bin	-INF	0
bin	335.787	0
bin	335.82033333333	0
bin	335.85366666667	0
bin	335.887	0
bin	335.92033333333	0
bin	335.95366666667	0
bin	335.987	0
bin	336.02033333333	0
bin	336.05366666667	0
bin	336.087	0
bin	336.12033333333	0
bin	336.15366666667	0
bin	336.187	0
bin	336.22033333333	0
bin	336.25366666667	0
bin	336.287	1
bin	336.32033333333	0
bin	336.35366666667	0
bin	336.387	0
bin	336.42033333333	0
bin	336.45366666667	0
bin	336.487	0
bin	336.52033333333	0
bin	336.55366666667	0
bin	336.587	0
bin	336.62033333333	0
bin	336.65366666667	0
bin	336.687	0
bin	336.72033333333	0
bin	336.75366666667	0
bin	336.787	0
statistic RandomGeometricGraph.rgnv[52] 	arrivalPerc:histogram
field count 1
field mean 1
field stddev nan
field sum 1
field sqrsum 1
field min 1
field max 1
attr interpolationmode  none
attr source  count(arrival)
attr title  "arrival perc, histogram"
bin	-INF	0
bin	0	0
bin	1	1
bin	2	0
statistic RandomGeometricGraph.rgnv[53] 	arrivalTime:histogram
field count 1
field mean 37.713
field stddev nan
field sum 37.713
field sqrsum 1422.270369
field min 37.713
field max 37.713
attr interpolationmode  none
attr source  arrivalTime
attr title  "arrival time, histogram"
bin	-INF	0
bin	37.213	0
bin	37.246333333333	0
bin	37.279666666667	0
bin	37.313	0
bin	37.346333333333	0
bin	37.379666666667	0
bin	37.413	0
bin	37.446333333333	0
bin	37.479666666667	0
bin	37.513	0
bin	37.546333333333	0
bin	37.579666666667	0
bin	37.613	0
bin	37.646333333333	0
bin	37.679666666667	0
bin	37.713	1
bin	37.746333333333	0
bin	37.779666666667	0
bin	37.813	0
bin	37.846333333333	0
bin	37.879666666667	0
bin	37.913	0
bin	37.946333333333	0
bin	37.979666666667	0
bin	38.013	0
bin	38.046333333333	0
bin	38.079666666667	0
bin	38.113	0
bin	38.146333333333	0
bin	38.179666666667	0
bin	38.213	0
statistic RandomGeometricGraph.rgnv[53] 	arrivalPerc:histogram
field count 1
field mean 1
field stddev nan
field sum 1
field sqrsum 1
field min 1
field max 1
attr interpolationmode  none
attr source  count(arrival)
attr title  "arrival perc, histogram"
bin	-INF	0
bin	0	0
bin	1	1
bin	2	0
statistic RandomGeometricGraph.rgnv[54] 	arrivalTime:histogram
field count 1
field mean 196.736
field stddev nan
field sum 196.736
field sqrsum 38705.053696
field min 196.736
field max 196.736
attr interpolationmode  none
attr source  arrivalTime
attr title  "arrival time, histogram"
bin	-INF	0
bin	196.236	0
bin	196.26933333333	0
bin	196.30266666667	0
bin	196.336	0
bin	196.36933333333	0
bin	196.40266666667	0
bin	196.436	0
bin	196.46933333333	0
bin	196.50266666667	0
bin	196.536	0
bin	196.56933333333	0
bin	196.60266666667	0
bin	196.636	0
bin	196.66933333333	0
bin	196.70266666667	0
bin	196.736	1
bin	196.76933333333	0
bin	196.80266666667	0
bin	196.836	0
bin	196.86933333333	0
bin	196.90266666667	0
bin	196.936	0
bin	196.96933333333	0
bin	197.00266666667	0
bin	197.036	0
bin	197.06933333333	0
bin	197.10266666667	0
bin	197.136	0
bin	197.16933333333	0
bin	197.20266666667	0
bin	197.236	0
statistic RandomGeometricGraph.rgnv[54] 	arrivalPerc:histogram
field count 1
field mean 1
field stddev nan
field sum 1
field sqrsum 1
field min 1
field max 1
attr interpolationmode  none
attr source  count(arrival)
attr title  "arrival perc, histogram"
bin	-INF	0
bin	0	0
bin	1	1
bin	2	0
statistic RandomGeometricGraph.rgnv[55] 	arrivalTime:histogram
field count 1
field mean 329.036
field stddev nan
field sum 329.036
field sqrsum 108264.689296
field min 329.036
field max 329.036
attr interpolationmode  none
attr source  arrivalTime
attr title  "arrival time, histogram"
bin	-INF	0
bin	328.536	0
bin	328.56933333333	0
bin	328.60266666667	0
bin	328.636	0
bin	328.66933333333	0
bin	328.70266666667	0
bin	328.736	0
bin	328.76933333333	0
bin	328.80266666667	0
bin	328.836	0
bin	328.86933333333	0
bin	328.90266666667	0
bin	328.936	0
bin	328.96933333333	0
bin	329.00266666667	0
bin	329.036	1
bin	329.06933333333	0
bin	329.10266666667	0
bin	329.136	0
bin	329.16933333333	0
bin	329.20266666667	0
bin	329.236	0
bin	329.26933333333	0
bin	329.30266666667	0
bin	329.336	0
bin	329.36933333333	0
bin	329.40266666667	0
bin	329.436	0
bin	329.46933333333	0
bin	329.50266666667	0
bin	329.536	0
statistic RandomGeometricGraph.rgnv[55] 	arrivalPerc:histogram
field count 1
field mean 1
field stddev nan
field sum 1
field sqrsum 1
field min 1
field max 1
attr interpolationmode  none
attr source  count(arrival)
attr title  "arrival perc, histogram"
bin	-INF	0
bin	0	0
bin	1	1
bin	2	0
statistic RandomGeometricGraph.rgnv[56] 	arrivalTime:histogram
field count 1
field mean 160.033
field stddev nan
field sum 160.033
field sqrsum 25610.561089
field min 160.033
field max 160.033
attr interpolationmode  none
attr source  arrivalTime
attr title  "arrival time, histogram"
bin	-INF	0
bin	159.533	0
bin	159.56633333333	0
bin	159.59966666667	0
bin	159.633	0
bin	159.66633333333	0
bin	159.69966666667	0
bin	159.733	0
bin	159.76633333333	0
bin	159.79966666667	0
bin	159.833	0
bin	159.86633333333	0
bin	159.89966666667	0
bin	159.933	0
bin	159.96633333333	0
bin	159.99966666667	0
bin	160.033	1
bin	160.06633333333	0
bin	160.09966666667	0
bin	160.133	0
bin	160.16633333333	0
bin	160.19966666667	0
bin	160.233	0
bin	160.26633333333	0
bin	160.29966666667	0
bin	160.333	0
bin	160.36633333333	0
bin	160.39966666667	0
bin	160.433	0
bin	160.46633333333	0
bin	160.49966666667	0
bin	160.533	0
statistic RandomGeometricGraph.rgnv[56] 	arrivalPerc:histogram
field count 1
field mean 1
field stddev nan
field sum 1
field sqrsum 1
field min 1
field max 1
attr interpolationmode  none
attr source  count(arrival)
attr title  "arrival perc, histogram"
bin	-INF	0
bin	0	0
bin	1	1
bin	2	0
statistic RandomGeometricGraph.rgnv[57] 	arrivalTime:histogram
field count 0
field mean nan
field stddev nan
field sum 0
field sqrsum 0
field min nan
field max nan
attr interpolationmode  none
attr source  arrivalTime
attr title  "arrival time, histogram"
bin	-INF	0
bin	-0.5	0
bin	-0.46666666666667	0
bin	-0.43333333333333	0
bin	-0.4	0
bin	-0.36666666666667	0
bin	-0.33333333333333	0
bin	-0.3	0
bin	-0.26666666666667	0
bin	-0.23333333333333	0
bin	-0.2	0
bin	-0.16666666666667	0
bin	-0.13333333333333	0
bin	-0.1	0
bin	-0.066666666666667	0
bin	-0.033333333333333	0
bin	0	0
bin	0.033333333333333	0
bin	0.066666666666667	0
bin	0.1	0
bin	0.13333333333333	0
bin	0.16666666666667	0
bin	0.2	0
bin	0.23333333333333	0
bin	0.26666666666667	0
bin	0.3	0
bin	0.33333333333333	0
bin	0.36666666666667	0
bin	0.4	0
bin	0.43333333333333	0
bin	0.46666666666667	0
bin	0.5	0
statistic RandomGeometricGraph.rgnv[57] 	arrivalPerc:histogram
field count 0
field mean nan
field stddev nan
field sum 0
field sqrsum 0
field min nan
field max nan
attr interpolationmode  none
attr source  count(arrival)
attr title  "arrival perc, histogram"
bin	-INF	0
bin	-0.5	0
bin	-0.46666666666667	0
bin	-0.43333333333333	0
bin	-0.4	0
bin	-0.36666666666667	0
bin	-0.33333333333333	0
bin	-0.3	0
bin	-0.26666666666667	0
bin	-0.23333333333333	0
bin	-0.2	0
bin	-0.16666666666667	0
bin	-0.13333333333333	0
bin	-0.1	0
bin	-0.066666666666667	0
bin	-0.033333333333333	0
bin	0	0
bin	0.033333333333333	0
bin	0.066666666666667	0
bin	0.1	0
bin	0.13333333333333	0
bin	0.16666666666667	0
bin	0.2	0
bin	0.23333333333333	0
bin	0.26666666666667	0
bin	0.3	0
bin	0.33333333333333	0
bin	0.36666666666667	0
bin	0.4	0
bin	0.43333333333333	0
bin	0.46666666666667	0
bin	0.5	0
statistic RandomGeometricGraph.rgnv[58] 	arrivalTime:histogram
field count 0
field mean nan
field stddev nan
field sum 0
field sqrsum 0
field min nan
field max nan
attr interpolationmode  none
attr source  arrivalTime
attr title  "arrival time, histogram"
bin	-INF	0
bin	-0.5	0
bin	-0.46666666666667	0
bin	-0.43333333333333	0
bin	-0.4	0
bin	-0.36666666666667	0
bin	-0.33333333333333	0
bin	-0.3	0
bin	-0.26666666666667	0
bin	-0.23333333333333	0
bin	-0.2	0
bin	-0.16666666666667	0
bin	-0.13333333333333	0
bin	-0.1	0
bin	-0.066666666666667	0
bin	-0.033333333333333	0
bin	0	0
bin	0.033333333333333	0
bin	0.066666666666667	0
bin	0.1	0
bin	0.13333333333333	0
bin	0.16666666666667	0
bin	0.2	0
bin	0.23333333333333	0
bin	0.26666666666667	0
bin	0.3	0
bin	0.33333333333333	0
bin	0.36666666666667	0
bin	0.4	0
bin	0.43333333333333	0
bin	0.46666666666667	0
bin	0.5	0
statistic RandomGeometricGraph.rgnv[58] 	arrivalPerc:histogram
field count 0
field mean nan
field stddev nan
field sum 0
field sqrsum 0
field min nan
field max nan
attr interpolationmode  none
attr source  count(arrival)
attr title  "arrival perc, histogram"
bin	-INF	0
bin	-0.5	0
bin	-0.46666666666667	0
bin	-0.43333333333333	0
bin	-0.4	0
bin	-0.36666666666667	0
bin	-0.33333333333333	0
bin	-0.3	0
bin	-0.26666666666667	0
bin	-0.23333333333333	0
bin	-0.2	0
bin	-0.16666666666667	0
bin	-0.13333333333333	0
bin	-0.1	0
bin	-0.066666666666667	0
bin	-0.033333333333333	0
bin	0	0
bin	0.033333333333333	0
bin	0.066666666666667	0
bin	0.1	0
bin	0.13333333333333	0
bin	0.16666666666667	0
bin	0.2	0
bin	0.23333333333333	0
bin	0.26666666666667	0
bin	0.3	0
bin	0.33333333333333	0
bin	0.36666666666667	0
bin	0.4	0
bin	0.43333333333333	0
bin	0.46666666666667	0
bin	0.5	0
statistic RandomGeometricGraph.rgnv[59] 	arrivalTime:histogram
field count 1
field mean 262.891
field stddev nan
field sum 262.891
field sqrsum 69111.677881
field min 262.891
field max 262.891
attr interpolationmode  none
attr source  arrivalTime
attr title  "arrival time, histogram"
bin	-INF	0
bin	262.391	0
bin	262.42433333333	0
bin	262.45766666667	0
bin	262.491	0
bin	262.52433333333	0
bin	262.55766666667	0
bin	262.591	0
bin	262.62433333333	0
bin	262.65766666667	0
bin	262.691	0
bin	262.72433333333	0
bin	262.75766666667	0
bin	262.791	0
bin	262.82433333333	0
bin	262.85766666667	0
bin	262.891	1
bin	262.92433333333	0
bin	262.95766666667	0
bin	262.991	0
bin	263.02433333333	0
bin	263.05766666667	0
bin	263.091	0
bin	263.12433333333	0
bin	263.15766666667	0
bin	263.191	0
bin	263.22433333333	0
bin	263.25766666667	0
bin	263.291	0
bin	263.32433333333	0
bin	263.35766666667	0
bin	263.391	0
statistic RandomGeometricGraph.rgnv[59] 	arrivalPerc:histogram
field count 1
field mean 1
field stddev nan
field sum 1
field sqrsum 1
field min 1
field max 1
attr interpolationmode  none
attr source  count(arrival)
attr title  "arrival perc, histogram"
bin	-INF	0
bin	0	0
bin	1	1
bin	2	0
statistic RandomGeometricGraph.rgnv[60] 	arrivalTime:histogram
field count 1
field mean 184.485
field stddev nan
field sum 184.485
field sqrsum 34034.715225
field min 184.485
field max 184.485
attr interpolationmode  none
attr source  arrivalTime
attr title  "arrival time, histogram"
bin	-INF	0
bin	183.985	0
bin	184.01833333333	0
bin	184.05166666667	0
bin	184.085	0
bin	184.11833333333	0
bin	184.15166666667	0
bin	184.185	0
bin	184.21833333333	0
bin	184.25166666667	0
bin	184.285	0
bin	184.31833333333	0
bin	184.35166666667	0
bin	184.385	0
bin	184.41833333333	0
bin	184.45166666667	0
bin	184.485	1
bin	184.51833333333	0
bin	184.55166666667	0
bin	184.585	0
bin	184.61833333333	0
bin	184.65166666667	0
bin	184.685	0
bin	184.71833333333	0
bin	184.75166666667	0
bin	184.785	0
bin	184.81833333333	0
bin	184.85166666667	0
bin	184.885	0
bin	184.91833333333	0
bin	184.95166666667	0
bin	184.985	0
statistic RandomGeometricGraph.rgnv[60] 	arrivalPerc:histogram
field count 1
field mean 1
field stddev nan
field sum 1
field sqrsum 1
field min 1
field max 1
attr interpolationmode  none
attr source  count(arrival)
attr title  "arrival perc, histogram"
bin	-INF	0
bin	0	0
bin	1	1
bin	2	0
statistic RandomGeometricGraph.rgnv[61] 	arrivalTime:histogram
field count 1
field mean 201.726
field stddev nan
field sum 201.726
field sqrsum 40693.379076
field min 201.726
field max 201.726
attr interpolationmode  none
attr source  arrivalTime
attr title  "arrival time, histogram"
bin	-INF	0
bin	201.226	0
bin	201.25933333333	0
bin	201.29266666667	0
bin	201.326	0
bin	201.35933333333	0
bin	201.39266666667	0
bin	201.426	0
bin	201.45933333333	0
bin	201.49266666667	0
bin	201.526	0
bin	201.55933333333	0
bin	201.59266666667	0
bin	201.626	0
bin	201.65933333333	0
bin	201.69266666667	0
bin	201.726	1
bin	201.75933333333	0
bin	201.79266666667	0
bin	201.826	0
bin	201.85933333333	0
bin	201.89266666667	0
bin	201.926	0
bin	201.95933333333	0
bin	201.99266666667	0
bin	202.026	0
bin	202.05933333333	0
bin	202.09266666667	0
bin	202.126	0
bin	202.15933333333	0
bin	202.19266666667	0
bin	202.226	0
statistic RandomGeometricGraph.rgnv[61] 	arrivalPerc:histogram
field count 1
field mean 1
field stddev nan
field sum 1
field sqrsum 1
field min 1
field max 1
attr interpolationmode  none
attr source  count(arrival)
attr title  "arrival perc, histogram"
bin	-INF	0
bin	0	0
bin	1	1
bin	2	0
statistic RandomGeometricGraph.rgnv[62] 	arrivalTime:histogram
field count 1
field mean 123.33
field stddev nan
field sum 123.33
field sqrsum 15210.2889
field min 123.33
field max 123.33
attr interpolationmode  none
attr source  arrivalTime
attr title  "arrival time, histogram"
bin	-INF	0
bin	122.83	0
bin	122.86333333333	0
bin	122.89666666667	0
bin	122.93	0
bin	122.96333333333	0
bin	122.99666666667	0
bin	123.03	0
bin	123.06333333333	0
bin	123.09666666667	0
bin	123.13	0
bin	123.16333333333	0
bin	123.19666666667	0
bin	123.23	0
bin	123.26333333333	0
bin	123.29666666667	0
bin	123.33	1
bin	123.36333333333	0
bin	123.39666666667	0
bin	123.43	0
bin	123.46333333333	0
bin	123.49666666667	0
bin	123.53	0
bin	123.56333333333	0
bin	123.59666666667	0
bin	123.63	0
bin	123.66333333333	0
bin	123.69666666667	0
bin	123.73	0
bin	123.76333333333	0
bin	123.79666666667	0
bin	123.83	0
statistic RandomGeometricGraph.rgnv[62] 	arrivalPerc:histogram
field count 1
field mean 1
field stddev nan
field sum 1
field sqrsum 1
field min 1
field max 1
attr interpolationmode  none
attr source  count(arrival)
attr title  "arrival perc, histogram"
bin	-INF	0
bin	0	0
bin	1	1
bin	2	0
statistic RandomGeometricGraph.rgnv[63] 	arrivalTime:histogram
field count 1
field mean 319.026
field stddev nan
field sum 319.026
field sqrsum 101777.588676
field min 319.026
field max 319.026
attr interpolationmode  none
attr source  arrivalTime
attr title  "arrival time, histogram"
bin	-INF	0
bin	318.526	0
bin	318.55933333333	0
bin	318.59266666667	0
bin	318.626	0
bin	318.65933333333	0
bin	318.69266666667	0
bin	318.726	0
bin	318.75933333333	0
bin	318.79266666667	0
bin	318.826	0
bin	318.85933333333	0
bin	318.89266666667	0
bin	318.926	0
bin	318.95933333333	0
bin	318.99266666667	0
bin	319.026	1
bin	319.05933333333	0
bin	319.09266666667	0
bin	319.126	0
bin	319.15933333333	0
bin	319.19266666667	0
bin	319.226	0
bin	319.25933333333	0
bin	319.29266666667	0
bin	319.326	0
bin	319.35933333333	0
bin	319.39266666667	0
bin	319.426	0
bin	319.45933333333	0
bin	319.49266666667	0
bin	319.526	0
statistic RandomGeometricGraph.rgnv[63] 	arrivalPerc:histogram
field count 1
field mean 1
field stddev nan
field sum 1
field sqrsum 1
field min 1
field max 1
attr interpolationmode  none
attr source  count(arrival)
attr title  "arrival perc, histogram"
bin	-INF	0
bin	0	0
bin	1	1
bin	2	0
statistic RandomGeometricGraph.rgnv[64] 	arrivalTime:histogram
field count 1
field mean 37.703
field stddev nan
field sum 37.703
field sqrsum 1421.516209
field min 37.703
field max 37.703
attr interpolationmode  none
attr source  arrivalTime
attr title  "arrival time, histogram"
bin	-INF	0
bin	37.203	0
bin	37.236333333333	0
bin	37.269666666667	0
bin	37.303	0
bin	37.336333333333	0
bin	37.369666666667	0
bin	37.403	0
bin	37.436333333333	0
bin	37.469666666667	0
bin	37.503	0
bin	37.536333333333	0
bin	37.569666666667	0
bin	37.603	0
bin	37.636333333333	0
bin	37.669666666667	0
bin	37.703	1
bin	37.736333333333	0
bin	37.769666666667	0
bin	37.803	0
bin	37.836333333333	0
bin	37.869666666667	0
bin	37.903	0
bin	37.936333333333	0
bin	37.969666666667	0
bin	38.003	0
bin	38.036333333333	0
bin	38.069666666667	0
bin	38.103	0
bin	38.136333333333	0
bin	38.169666666667	0
bin	38.203	0
statistic RandomGeometricGraph.rgnv[64] 	arrivalPerc:histogram
field count 1
field mean 1
field stddev nan
field sum 1
field sqrsum 1
field min 1
field max 1
attr interpolationmode  none
attr source  count(arrival)
attr title  "arrival perc, histogram"
bin	-INF	0
bin	0	0
bin	1	1
bin	2	0
statistic RandomGeometricGraph.rgnv[65] 	arrivalTime:histogram
field count 1
field mean 74.406
field stddev nan
field sum 74.406
field sqrsum 5536.252836
field min 74.406
field max 74.406
attr interpolationmode  none
attr source  arrivalTime
attr title  "arrival time, histogram"
bin	-INF	0
bin	73.906	0
bin	73.939333333333	0
bin	73.972666666667	0
bin	74.006	0
bin	74.039333333333	0
bin	74.072666666667	0
bin	74.106	0
bin	74.139333333333	0
bin	74.172666666667	0
bin	74.206	0
bin	74.239333333333	0
bin	74.272666666667	0
bin	74.306	0
bin	74.339333333333	0
bin	74.372666666667	0
bin	74.406	1
bin	74.439333333333	0
bin	74.472666666667	0
bin	74.506	0
bin	74.539333333333	0
bin	74.572666666667	0
bin	74.606	0
bin	74.639333333333	0
bin	74.672666666667	0
bin	74.706	0
bin	74.739333333333	0
bin	74.772666666667	0
bin	74.806	0
bin	74.839333333333	0
bin	74.872666666667	0
bin	74.906	0
statistic RandomGeometricGraph.rgnv[65] 	arrivalPerc:histogram
field count 1
field mean 1
field stddev nan
field sum 1
field sqrsum 1
field min 1
[...]
bin	1	1
bin	2	0
statistic RandomGeometricGraph.rgnv[483] 	arrivalTime:histogram
field count 1
field mean 49.934
field stddev nan
field sum 49.934
field sqrsum 2493.404356
field min 49.934
field max 49.934
attr interpolationmode  none
attr source  arrivalTime
attr title  "arrival time, histogram"
bin	-INF	0
bin	49.434	0
bin	49.467333333333	0
bin	49.500666666667	0
bin	49.534	0
bin	49.567333333333	0
bin	49.600666666667	0
bin	49.634	0
bin	49.667333333333	0
bin	49.700666666667	0
bin	49.734	0
bin	49.767333333333	0
bin	49.800666666667	0
bin	49.834	0
bin	49.867333333333	0
bin	49.900666666667	0
bin	49.934	1
bin	49.967333333333	0
bin	50.000666666667	0
bin	50.034	0
bin	50.067333333333	0
bin	50.100666666667	0
bin	50.134	0
bin	50.167333333333	0
bin	50.200666666667	0
bin	50.234	0
bin	50.267333333333	0
bin	50.300666666667	0
bin	50.334	0
bin	50.367333333333	0
bin	50.400666666667	0
bin	50.434	0
statistic RandomGeometricGraph.rgnv[483] 	arrivalPerc:histogram
field count 1
field mean 1
field stddev nan
field sum 1
field sqrsum 1
field min 1
field max 1
attr interpolationmode  none
attr source  count(arrival)
attr title  "arrival perc, histogram"
bin	-INF	0
bin	0	0
bin	1	1
bin	2	0
statistic RandomGeometricGraph.rgnv[484] 	arrivalTime:histogram
field count 1
field mean 189.495
field stddev nan
field sum 189.495
field sqrsum 35908.355025
field min 189.495
field max 189.495
attr interpolationmode  none
attr source  arrivalTime
attr title  "arrival time, histogram"
bin	-INF	0
bin	188.995	0
bin	189.02833333333	0
bin	189.06166666667	0
bin	189.095	0
bin	189.12833333333	0
bin	189.16166666667	0
bin	189.195	0
bin	189.22833333333	0
bin	189.26166666667	0
bin	189.295	0
bin	189.32833333333	0
bin	189.36166666667	0
bin	189.395	0
bin	189.42833333333	0
bin	189.46166666667	0
bin	189.495	1
bin	189.52833333333	0
bin	189.56166666667	0
bin	189.595	0
bin	189.62833333333	0
bin	189.66166666667	0
bin	189.695	0
bin	189.72833333333	0
bin	189.76166666667	0
bin	189.795	0
bin	189.82833333333	0
bin	189.86166666667	0
bin	189.895	0
bin	189.92833333333	0
bin	189.96166666667	0
bin	189.995	0
statistic RandomGeometricGraph.rgnv[484] 	arrivalPerc:histogram
field count 1
field mean 1
field stddev nan
field sum 1
field sqrsum 1
field min 1
field max 1
attr interpolationmode  none
attr source  count(arrival)
attr title  "arrival perc, histogram"
bin	-INF	0
bin	0	0
bin	1	1
bin	2	0
statistic RandomGeometricGraph.rgnv[485] 	arrivalTime:histogram
field count 1
field mean 172.244
field stddev nan
field sum 172.244
field sqrsum 29667.995536
field min 172.244
field max 172.244
attr interpolationmode  none
attr source  arrivalTime
attr title  "arrival time, histogram"
bin	-INF	0
bin	171.744	0
bin	171.77733333333	0
bin	171.81066666667	0
bin	171.844	0
bin	171.87733333333	0
bin	171.91066666667	0
bin	171.944	0
bin	171.97733333333	0
bin	172.01066666667	0
bin	172.044	0
bin	172.07733333333	0
bin	172.11066666667	0
bin	172.144	0
bin	172.17733333333	0
bin	172.21066666667	0
bin	172.244	1
bin	172.27733333333	0
bin	172.31066666667	0
bin	172.344	0
bin	172.37733333333	0
bin	172.41066666667	0
bin	172.444	0
bin	172.47733333333	0
bin	172.51066666667	0
bin	172.544	0
bin	172.57733333333	0
bin	172.61066666667	0
bin	172.644	0
bin	172.67733333333	0
bin	172.71066666667	0
bin	172.744	0
statistic RandomGeometricGraph.rgnv[485] 	arrivalPerc:histogram
field count 1
field mean 1
field stddev nan
field sum 1
field sqrsum 1
field min 1
field max 1
attr interpolationmode  none
attr source  count(arrival)
attr title  "arrival perc, histogram"
bin	-INF	0
bin	0	0
bin	1	1
bin	2	0
statistic RandomGeometricGraph.rgnv[486] 	arrivalTime:histogram
field count 1
field mean 37.693
field stddev nan
field sum 37.693
field sqrsum 1420.762249
field min 37.693
field max 37.693
attr interpolationmode  none
attr source  arrivalTime
attr title  "arrival time, histogram"
bin	-INF	0
bin	37.193	0
bin	37.226333333333	0
bin	37.259666666667	0
bin	37.293	0
bin	37.326333333333	0
bin	37.359666666667	0
bin	37.393	0
bin	37.426333333333	0
bin	37.459666666667	0
bin	37.493	0
bin	37.526333333333	0
bin	37.559666666667	0
bin	37.593	0
bin	37.626333333333	0
bin	37.659666666667	0
bin	37.693	1
bin	37.726333333333	0
bin	37.759666666667	0
bin	37.793	0
bin	37.826333333333	0
bin	37.859666666667	0
bin	37.893	0
bin	37.926333333333	0
bin	37.959666666667	0
bin	37.993	0
bin	38.026333333333	0
bin	38.059666666667	0
bin	38.093	0
bin	38.126333333333	0
bin	38.159666666667	0
bin	38.193	0
statistic RandomGeometricGraph.rgnv[486] 	arrivalPerc:histogram
field count 1
field mean 1
field stddev nan
field sum 1
field sqrsum 1
field min 1
field max 1
attr interpolationmode  none
attr source  count(arrival)
attr title  "arrival perc, histogram"
bin	-INF	0
bin	0	0
bin	1	1
bin	2	0
statistic RandomGeometricGraph.rgnv[487] 	arrivalTime:histogram
field count 1
field mean 98.868
field stddev nan
field sum 98.868
field sqrsum 9774.881424
field min 98.868
field max 98.868
attr interpolationmode  none
attr source  arrivalTime
attr title  "arrival time, histogram"
bin	-INF	0
bin	98.368	0
bin	98.401333333333	0
bin	98.434666666667	0
bin	98.468	0
bin	98.501333333333	0
bin	98.534666666667	0
bin	98.568	0
bin	98.601333333333	0
bin	98.634666666667	0
bin	98.668	0
bin	98.701333333333	0
bin	98.734666666667	0
bin	98.768	0
bin	98.801333333333	0
bin	98.834666666667	0
bin	98.868	1
bin	98.901333333333	0
bin	98.934666666667	0
bin	98.968	0
bin	99.001333333333	0
bin	99.034666666667	0
bin	99.068	0
bin	99.101333333333	0
bin	99.134666666667	0
bin	99.168	0
bin	99.201333333333	0
bin	99.234666666667	0
bin	99.268	0
bin	99.301333333333	0
bin	99.334666666667	0
bin	99.368	0
statistic RandomGeometricGraph.rgnv[487] 	arrivalPerc:histogram
field count 1
field mean 1
field stddev nan
field sum 1
field sqrsum 1
field min 1
field max 1
attr interpolationmode  none
attr source  count(arrival)
attr title  "arrival perc, histogram"
bin	-INF	0
bin	0	0
bin	1	1
bin	2	0
statistic RandomGeometricGraph.rgnv[488] 	arrivalTime:histogram
field count 1
field mean 311.815
field stddev nan
field sum 311.815
field sqrsum 97228.594225
field min 311.815
field max 311.815
attr interpolationmode  none
attr source  arrivalTime
attr title  "arrival time, histogram"
bin	-INF	0
bin	311.315	0
bin	311.34833333333	0
bin	311.38166666667	0
bin	311.415	0
bin	311.44833333333	0
bin	311.48166666667	0
bin	311.515	0
bin	311.54833333333	0
bin	311.58166666667	0
bin	311.615	0
bin	311.64833333333	0
bin	311.68166666667	0
bin	311.715	0
bin	311.74833333333	0
bin	311.78166666667	0
bin	311.815	1
bin	311.84833333333	0
bin	311.88166666667	0
bin	311.915	0
bin	311.94833333333	0
bin	311.98166666667	0
bin	312.015	0
bin	312.04833333333	0
bin	312.08166666667	0
bin	312.115	0
bin	312.14833333333	0
bin	312.18166666667	0
bin	312.215	0
bin	312.24833333333	0
bin	312.28166666667	0
bin	312.315	0
statistic RandomGeometricGraph.rgnv[488] 	arrivalPerc:histogram
field count 1
field mean 1
field stddev nan
field sum 1
field sqrsum 1
field min 1
field max 1
attr interpolationmode  none
attr source  count(arrival)
attr title  "arrival perc, histogram"
bin	-INF	0
bin	0	0
bin	1	1
bin	2	0
statistic RandomGeometricGraph.rgnv[489] 	arrivalTime:histogram
field count 1
field mean 140.571
field stddev nan
field sum 140.571
field sqrsum 19760.206041
field min 140.571
field max 140.571
attr interpolationmode  none
attr source  arrivalTime
attr title  "arrival time, histogram"
bin	-INF	0
bin	140.071	0
bin	140.10433333333	0
bin	140.13766666667	0
bin	140.171	0
bin	140.20433333333	0
bin	140.23766666667	0
bin	140.271	0
bin	140.30433333333	0
bin	140.33766666667	0
bin	140.371	0
bin	140.40433333333	0
bin	140.43766666667	0
bin	140.471	0
bin	140.50433333333	0
bin	140.53766666667	0
bin	140.571	1
bin	140.60433333333	0
bin	140.63766666667	0
bin	140.671	0
bin	140.70433333333	0
bin	140.73766666667	0
bin	140.771	0
bin	140.80433333333	0
bin	140.83766666667	0
bin	140.871	0
bin	140.90433333333	0
bin	140.93766666667	0
bin	140.971	0
bin	141.00433333333	0
bin	141.03766666667	0
bin	141.071	0
statistic RandomGeometricGraph.rgnv[489] 	arrivalPerc:histogram
field count 1
field mean 1
field stddev nan
field sum 1
field sqrsum 1
field min 1
field max 1
attr interpolationmode  none
attr source  count(arrival)
attr title  "arrival perc, histogram"
bin	-INF	0
bin	0	0
bin	1	1
bin	2	0
statistic RandomGeometricGraph.rgnv[490] 	arrivalTime:histogram
field count 1
field mean 456.376
field stddev nan
field sum 456.376
field sqrsum 208279.053376
field min 456.376
field max 456.376
attr interpolationmode  none
attr source  arrivalTime
attr title  "arrival time, histogram"
bin	-INF	0
bin	455.876	0
bin	455.90933333333	0
bin	455.94266666667	0
bin	455.976	0
bin	456.00933333333	0
bin	456.04266666667	0
bin	456.076	0
bin	456.10933333333	0
bin	456.14266666667	0
bin	456.176	0
bin	456.20933333333	0
bin	456.24266666667	0
bin	456.276	0
bin	456.30933333333	0
bin	456.34266666667	0
bin	456.376	1
bin	456.40933333333	0
bin	456.44266666667	0
bin	456.476	0
bin	456.50933333333	0
bin	456.54266666667	0
bin	456.576	0
bin	456.60933333333	0
bin	456.64266666667	0
bin	456.676	0
bin	456.70933333333	0
bin	456.74266666667	0
bin	456.776	0
bin	456.80933333333	0
bin	456.84266666667	0
bin	456.876	0
statistic RandomGeometricGraph.rgnv[490] 	arrivalPerc:histogram
field count 1
field mean 1
field stddev nan
field sum 1
field sqrsum 1
field min 1
field max 1
attr interpolationmode  none
attr source  count(arrival)
attr title  "arrival perc, histogram"
bin	-INF	0
bin	0	0
bin	1	1
bin	2	0
statistic RandomGeometricGraph.rgnv[491] 	arrivalTime:histogram
field count 1
field mean 267.891
field stddev nan
field sum 267.891
field sqrsum 71765.587881
field min 267.891
field max 267.891
attr interpolationmode  none
attr source  arrivalTime
attr title  "arrival time, histogram"
bin	-INF	0
bin	267.391	0
bin	267.42433333333	0
bin	267.45766666667	0
bin	267.491	0
bin	267.52433333333	0
bin	267.55766666667	0
bin	267.591	0
bin	267.62433333333	0
bin	267.65766666667	0
bin	267.691	0
bin	267.72433333333	0
bin	267.75766666667	0
bin	267.791	0
bin	267.82433333333	0
bin	267.85766666667	0
bin	267.891	1
bin	267.92433333333	0
bin	267.95766666667	0
bin	267.991	0
bin	268.02433333333	0
bin	268.05766666667	0
bin	268.091	0
bin	268.12433333333	0
bin	268.15766666667	0
bin	268.191	0
bin	268.22433333333	0
bin	268.25766666667	0
bin	268.291	0
bin	268.32433333333	0
bin	268.35766666667	0
bin	268.391	0
statistic RandomGeometricGraph.rgnv[491] 	arrivalPerc:histogram
field count 1
field mean 1
field stddev nan
field sum 1
field sqrsum 1
field min 1
field max 1
attr interpolationmode  none
attr source  count(arrival)
attr title  "arrival perc, histogram"
bin	-INF	0
bin	0	0
bin	1	1
bin	2	0
statistic RandomGeometricGraph.rgnv[492] 	arrivalTime:histogram
field count 1
field mean 74.396
field stddev nan
field sum 74.396
field sqrsum 5534.764816
field min 74.396
field max 74.396
attr interpolationmode  none
attr source  arrivalTime
attr title  "arrival time, histogram"
bin	-INF	0
bin	73.896	0
bin	73.929333333333	0
bin	73.962666666667	0
bin	73.996	0
bin	74.029333333333	0
bin	74.062666666667	0
bin	74.096	0
bin	74.129333333333	0
bin	74.162666666667	0
bin	74.196	0
bin	74.229333333333	0
bin	74.262666666667	0
bin	74.296	0
bin	74.329333333333	0
bin	74.362666666667	0
bin	74.396	1
bin	74.429333333333	0
bin	74.462666666667	0
bin	74.496	0
bin	74.529333333333	0
bin	74.562666666667	0
bin	74.596	0
bin	74.629333333333	0
bin	74.662666666667	0
bin	74.696	0
bin	74.729333333333	0
bin	74.762666666667	0
bin	74.796	0
bin	74.829333333333	0
bin	74.862666666667	0
bin	74.896	0
statistic RandomGeometricGraph.rgnv[492] 	arrivalPerc:histogram
field count 1
field mean 1
field stddev nan
field sum 1
field sqrsum 1
field min 1
field max 1
attr interpolationmode  none
attr source  count(arrival)
attr title  "arrival perc, histogram"
bin	-INF	0
bin	0	0
bin	1	1
bin	2	0
statistic RandomGeometricGraph.rgnv[493] 	arrivalTime:histogram
field count 1
field mean 177.264
field stddev nan
field sum 177.264
field sqrsum 31422.525696
field min 177.264
field max 177.264
attr interpolationmode  none
attr source  arrivalTime
attr title  "arrival time, histogram"
bin	-INF	0
bin	176.764	0
bin	176.79733333333	0
bin	176.83066666667	0
bin	176.864	0
bin	176.89733333333	0
bin	176.93066666667	0
bin	176.964	0
bin	176.99733333333	0
bin	177.03066666667	0
bin	177.064	0
bin	177.09733333333	0
bin	177.13066666667	0
bin	177.164	0
bin	177.19733333333	0
bin	177.23066666667	0
bin	177.264	1
bin	177.29733333333	0
bin	177.33066666667	0
bin	177.364	0
bin	177.39733333333	0
bin	177.43066666667	0
bin	177.464	0
bin	177.49733333333	0
bin	177.53066666667	0
bin	177.564	0
bin	177.59733333333	0
bin	177.63066666667	0
bin	177.664	0
bin	177.69733333333	0
bin	177.73066666667	0
bin	177.764	0
statistic RandomGeometricGraph.rgnv[493] 	arrivalPerc:histogram
field count 1
field mean 1
field stddev nan
field sum 1
field sqrsum 1
field min 1
field max 1
attr interpolationmode  none
attr source  count(arrival)
attr title  "arrival perc, histogram"
bin	-INF	0
bin	0	0
bin	1	1
bin	2	0
statistic RandomGeometricGraph.rgnv[494] 	arrivalTime:histogram
field count 1
field mean 67.175
field stddev nan
field sum 67.175
field sqrsum 4512.480625
field min 67.175
field max 67.175
attr interpolationmode  none
attr source  arrivalTime
attr title  "arrival time, histogram"
bin	-INF	0
bin	66.675	0
bin	66.708333333333	0
bin	66.741666666667	0
bin	66.775	0
bin	66.808333333333	0
bin	66.841666666667	0
bin	66.875	0
bin	66.908333333333	0
bin	66.941666666667	0
bin	66.975	0
bin	67.008333333333	0
bin	67.041666666667	0
bin	67.075	0
bin	67.108333333333	0
bin	67.141666666667	0
bin	67.175	1
bin	67.208333333333	0
bin	67.241666666667	0
bin	67.275	0
bin	67.308333333333	0
bin	67.341666666667	0
bin	67.375	0
bin	67.408333333333	0
bin	67.441666666667	0
bin	67.475	0
bin	67.508333333333	0
bin	67.541666666667	0
bin	67.575	0
bin	67.608333333333	0
bin	67.641666666667	0
bin	67.675	0
statistic RandomGeometricGraph.rgnv[494] 	arrivalPerc:histogram
field count 1
field mean 1
field stddev nan
field sum 1
field sqrsum 1
field min 1
field max 1
attr interpolationmode  none
attr source  count(arrival)
attr title  "arrival perc, histogram"
bin	-INF	0
bin	0	0
bin	1	1
bin	2	0
statistic RandomGeometricGraph.rgnv[495] 	arrivalTime:histogram
field count 1
field mean 165.033
field stddev nan
field sum 165.033
field sqrsum 27235.891089
field min 165.033
field max 165.033
attr interpolationmode  none
attr source  arrivalTime
attr title  "arrival time, histogram"
bin	-INF	0
bin	164.533	0
bin	164.56633333333	0
bin	164.59966666667	0
bin	164.633	0
bin	164.66633333333	0
bin	164.69966666667	0
bin	164.733	0
bin	164.76633333333	0
bin	164.79966666667	0
bin	164.833	0
bin	164.86633333333	0
bin	164.89966666667	0
bin	164.933	0
bin	164.96633333333	0
bin	164.99966666667	0
bin	165.033	1
bin	165.06633333333	0
bin	165.09966666667	0
bin	165.133	0
bin	165.16633333333	0
bin	165.19966666667	0
bin	165.233	0
bin	165.26633333333	0
bin	165.29966666667	0
bin	165.333	0
bin	165.36633333333	0
bin	165.39966666667	0
bin	165.433	0
bin	165.46633333333	0
bin	165.49966666667	0
bin	165.533	0
statistic RandomGeometricGraph.rgnv[495] 	arrivalPerc:histogram
field count 1
field mean 1
field stddev nan
field sum 1
field sqrsum 1
field min 1
field max 1
attr interpolationmode  none
attr source  count(arrival)
attr title  "arrival perc, histogram"
bin	-INF	0
bin	0	0
bin	1	1
bin	2	0
statistic RandomGeometricGraph.rgnv[496] 	arrivalTime:histogram
field count 1
field mean 121.109
field stddev nan
field sum 121.109
field sqrsum 14667.389881
field min 121.109
field max 121.109
attr interpolationmode  none
attr source  arrivalTime
attr title  "arrival time, histogram"
bin	-INF	0
bin	120.609	0
bin	120.64233333333	0
bin	120.67566666667	0
bin	120.709	0
bin	120.74233333333	0
bin	120.77566666667	0
bin	120.809	0
bin	120.84233333333	0
bin	120.87566666667	0
bin	120.909	0
bin	120.94233333333	0
bin	120.97566666667	0
bin	121.009	0
bin	121.04233333333	0
bin	121.07566666667	0
bin	121.109	1
bin	121.14233333333	0
bin	121.17566666667	0
bin	121.209	0
bin	121.24233333333	0
bin	121.27566666667	0
bin	121.309	0
bin	121.34233333333	0
bin	121.37566666667	0
bin	121.409	0
bin	121.44233333333	0
bin	121.47566666667	0
bin	121.509	0
bin	121.54233333333	0
bin	121.57566666667	0
bin	121.609	0
statistic RandomGeometricGraph.rgnv[496] 	arrivalPerc:histogram
field count 1
field mean 1
field stddev nan
field sum 1
field sqrsum 1
field min 1
field max 1
attr interpolationmode  none
attr source  count(arrival)
attr title  "arrival perc, histogram"
bin	-INF	0
bin	0	0
bin	1	1
bin	2	0
statistic RandomGeometricGraph.rgnv[497] 	arrivalTime:histogram
field count 1
field mean 292.343
field stddev nan
field sum 292.343
field sqrsum 85464.429649
field min 292.343
field max 292.343
attr interpolationmode  none
attr source  arrivalTime
attr title  "arrival time, histogram"
bin	-INF	0
bin	291.843	0
bin	291.87633333333	0
bin	291.90966666667	0
bin	291.943	0
bin	291.97633333333	0
bin	292.00966666667	0
bin	292.043	0
bin	292.07633333333	0
bin	292.10966666667	0
bin	292.143	0
bin	292.17633333333	0
bin	292.20966666667	0
bin	292.243	0
bin	292.27633333333	0
bin	292.30966666667	0
bin	292.343	1
bin	292.37633333333	0
bin	292.40966666667	0
bin	292.443	0
bin	292.47633333333	0
bin	292.50966666667	0
bin	292.543	0
bin	292.57633333333	0
bin	292.60966666667	0
bin	292.643	0
bin	292.67633333333	0
bin	292.70966666667	0
bin	292.743	0
bin	292.77633333333	0
bin	292.80966666667	0
bin	292.843	0
statistic RandomGeometricGraph.rgnv[497] 	arrivalPerc:histogram
field count 1
field mean 1
field stddev nan
field sum 1
field sqrsum 1
field min 1
field max 1
attr interpolationmode  none
attr source  count(arrival)
attr title  "arrival perc, histogram"
bin	-INF	0
bin	0	0
bin	1	1
bin	2	0
statistic RandomGeometricGraph.rgnv[498] 	arrivalTime:histogram
field count 1
field mean 140.581
field stddev nan
field sum 140.581
field sqrsum 19763.017561
field min 140.581
field max 140.581
attr interpolationmode  none
attr source  arrivalTime
attr title  "arrival time, histogram"
bin	-INF	0
bin	140.081	0
bin	140.11433333333	0
bin	140.14766666667	0
bin	140.181	0
bin	140.21433333333	0
bin	140.24766666667	0
bin	140.281	0
bin	140.31433333333	0
bin	140.34766666667	0
bin	140.381	0
bin	140.41433333333	0
bin	140.44766666667	0
bin	140.481	0
bin	140.51433333333	0
bin	140.54766666667	0
bin	140.581	1
bin	140.61433333333	0
bin	140.64766666667	0
bin	140.681	0
bin	140.71433333333	0
bin	140.74766666667	0
bin	140.781	0
bin	140.81433333333	0
bin	140.84766666667	0
bin	140.881	0
bin	140.91433333333	0
bin	140.94766666667	0
bin	140.981	0
bin	141.01433333333	0
bin	141.04766666667	0
bin	141.081	0
statistic RandomGeometricGraph.rgnv[498] 	arrivalPerc:histogram
field count 1
field mean 1
field stddev nan
field sum 1
field sqrsum 1
field min 1
field max 1
attr interpolationmode  none
attr source  count(arrival)
attr title  "arrival perc, histogram"
bin	-INF	0
bin	0	0
bin	1	1
bin	2	0
statistic RandomGeometricGraph.rgnv[499] 	arrivalTime:histogram
field count 1
field mean 111.109
field stddev nan
field sum 111.109
field sqrsum 12345.209881
field min 111.109
field max 111.109
attr interpolationmode  none
attr source  arrivalTime
attr title  "arrival time, histogram"
bin	-INF	0
bin	110.609	0
bin	110.64233333333	0
bin	110.67566666667	0
bin	110.709	0
bin	110.74233333333	0
bin	110.77566666667	0
bin	110.809	0
bin	110.84233333333	0
bin	110.87566666667	0
bin	110.909	0
bin	110.94233333333	0
bin	110.97566666667	0
bin	111.009	0
bin	111.04233333333	0
bin	111.07566666667	0
bin	111.109	1
bin	111.14233333333	0
bin	111.17566666667	0
bin	111.209	0
bin	111.24233333333	0
bin	111.27566666667	0
bin	111.309	0
bin	111.34233333333	0
bin	111.37566666667	0
bin	111.409	0
bin	111.44233333333	0
bin	111.47566666667	0
bin	111.509	0
bin	111.54233333333	0
bin	111.57566666667	0
bin	111.609	0
statistic RandomGeometricGraph.rgnv[499] 	arrivalPerc:histogram
field count 1
field mean 1
field stddev nan
field sum 1
field sqrsum 1
field min 1
field max 1
attr interpolationmode  none
attr source  count(arrival)
attr title  "arrival perc, histogram"
bin	-INF	0
bin	0	0
bin	1	1
bin	2	0
