version 2
run rgg500-6-20170110-16:24:38-11920
attr configname rgg500
attr datetime 20170110-16:24:38
attr experiment rgg500
attr inifile iniFile/D001/omnetpp_15D001.ini
attr iterationvars ""
attr iterationvars2 $repetition=6
attr measurement ""
attr network blegossipprj.net.randomgeometricgraph.RandomGeometricGraph
attr processid 11920
attr repetition 6
attr replication #6
attr resultdir ../../results/D001/r15D001
attr runnumber 6
attr seedset 6
param RandomGeometricGraph.netSize 500
param RandomGeometricGraph.radius 15
param RandomGeometricGraph.rgnv[*].areaLength 224
param RandomGeometricGraph.rgnv[*].areaWidth 224

statistic RandomGeometricGraph.sc 	arrivalPercentage
field count 463
field mean 1
field stddev 0
field sum 463
field sqrsum 463
field min 1
field max 1
attr type  int
bin	-INF	0
bin	0	0
bin	1	463
bin	2	0
statistic RandomGeometricGraph.sc 	arrivalTime
field count 463
field mean 297.65351187905
field stddev 114.79502081387
field sum 137813.576
field sqrsum 47108883.2043
field min 0
field max 515.29
bin	-INF	0
bin	-100.863	0
bin	-87.4146	0
bin	-73.9662	0
bin	-60.5178	0
bin	-47.0694	0
bin	-33.621	0
bin	-20.1726	0
bin	-6.7242	1
bin	6.7242	1
bin	20.1726	2
bin	33.621	4
bin	47.0694	6
bin	60.5178	2
bin	73.9662	6
bin	87.4146	4
bin	100.863	9
bin	114.3114	7
bin	127.7598	11
bin	141.2082	9
bin	154.6566	10
bin	168.105	10
bin	181.5534	12
bin	195.0018	13
bin	208.4502	18
bin	221.8986	12
bin	235.347	15
bin	248.7954	19
bin	262.2438	22
bin	275.6922	12
bin	289.1406	13
bin	302.589	245
statistic RandomGeometricGraph.rgnv[0] 	arrivalTime:histogram
field count 0
field mean nan
field stddev nan
field sum 0
field sqrsum 0
field min nan
field max nan
attr interpolationmode  none
attr source  arrivalTime
attr title  "arrival time, histogram"
bin	-INF	0
bin	-0.5	0
bin	-0.46666666666667	0
bin	-0.43333333333333	0
bin	-0.4	0
bin	-0.36666666666667	0
bin	-0.33333333333333	0
bin	-0.3	0
bin	-0.26666666666667	0
bin	-0.23333333333333	0
bin	-0.2	0
bin	-0.16666666666667	0
bin	-0.13333333333333	0
bin	-0.1	0
bin	-0.066666666666667	0
bin	-0.033333333333333	0
bin	0	0
bin	0.033333333333333	0
bin	0.066666666666667	0
bin	0.1	0
bin	0.13333333333333	0
bin	0.16666666666667	0
bin	0.2	0
bin	0.23333333333333	0
bin	0.26666666666667	0
bin	0.3	0
bin	0.33333333333333	0
bin	0.36666666666667	0
bin	0.4	0
bin	0.43333333333333	0
bin	0.46666666666667	0
bin	0.5	0
statistic RandomGeometricGraph.rgnv[0] 	arrivalPerc:histogram
field count 0
field mean nan
field stddev nan
field sum 0
field sqrsum 0
field min nan
field max nan
attr interpolationmode  none
attr source  count(arrival)
attr title  "arrival perc, histogram"
bin	-INF	0
bin	-0.5	0
bin	-0.46666666666667	0
bin	-0.43333333333333	0
bin	-0.4	0
bin	-0.36666666666667	0
bin	-0.33333333333333	0
bin	-0.3	0
bin	-0.26666666666667	0
bin	-0.23333333333333	0
bin	-0.2	0
bin	-0.16666666666667	0
bin	-0.13333333333333	0
bin	-0.1	0
bin	-0.066666666666667	0
bin	-0.033333333333333	0
bin	0	0
bin	0.033333333333333	0
bin	0.066666666666667	0
bin	0.1	0
bin	0.13333333333333	0
bin	0.16666666666667	0
bin	0.2	0
bin	0.23333333333333	0
bin	0.26666666666667	0
bin	0.3	0
bin	0.33333333333333	0
bin	0.36666666666667	0
bin	0.4	0
bin	0.43333333333333	0
bin	0.46666666666667	0
bin	0.5	0
statistic RandomGeometricGraph.rgnv[1] 	arrivalTime:histogram
field count 1
field mean 326.835
field stddev nan
field sum 326.835
field sqrsum 106821.117225
field min 326.835
field max 326.835
attr interpolationmode  none
attr source  arrivalTime
attr title  "arrival time, histogram"
bin	-INF	0
bin	326.335	0
bin	326.36833333333	0
bin	326.40166666667	0
bin	326.435	0
bin	326.46833333333	0
bin	326.50166666667	0
bin	326.535	0
bin	326.56833333333	0
bin	326.60166666667	0
bin	326.635	0
bin	326.66833333333	0
bin	326.70166666667	0
bin	326.735	0
bin	326.76833333333	0
bin	326.80166666667	0
bin	326.835	1
bin	326.86833333333	0
bin	326.90166666667	0
bin	326.935	0
bin	326.96833333333	0
bin	327.00166666667	0
bin	327.035	0
bin	327.06833333333	0
bin	327.10166666667	0
bin	327.135	0
bin	327.16833333333	0
bin	327.20166666667	0
bin	327.235	0
bin	327.26833333333	0
bin	327.30166666667	0
bin	327.335	0
statistic RandomGeometricGraph.rgnv[1] 	arrivalPerc:histogram
field count 1
field mean 1
field stddev nan
field sum 1
field sqrsum 1
field min 1
field max 1
attr interpolationmode  none
attr source  count(arrival)
attr title  "arrival perc, histogram"
bin	-INF	0
bin	0	0
bin	1	1
bin	2	0
statistic RandomGeometricGraph.rgnv[2] 	arrivalTime:histogram
field count 1
field mean 140.571
field stddev nan
field sum 140.571
field sqrsum 19760.206041
field min 140.571
field max 140.571
attr interpolationmode  none
attr source  arrivalTime
attr title  "arrival time, histogram"
bin	-INF	0
bin	140.071	0
bin	140.10433333333	0
bin	140.13766666667	0
bin	140.171	0
bin	140.20433333333	0
bin	140.23766666667	0
bin	140.271	0
bin	140.30433333333	0
bin	140.33766666667	0
bin	140.371	0
bin	140.40433333333	0
bin	140.43766666667	0
bin	140.471	0
bin	140.50433333333	0
bin	140.53766666667	0
bin	140.571	1
bin	140.60433333333	0
bin	140.63766666667	0
bin	140.671	0
bin	140.70433333333	0
bin	140.73766666667	0
bin	140.771	0
bin	140.80433333333	0
bin	140.83766666667	0
bin	140.871	0
bin	140.90433333333	0
bin	140.93766666667	0
bin	140.971	0
bin	141.00433333333	0
bin	141.03766666667	0
bin	141.071	0
statistic RandomGeometricGraph.rgnv[2] 	arrivalPerc:histogram
field count 1
field mean 1
field stddev nan
field sum 1
field sqrsum 1
field min 1
field max 1
attr interpolationmode  none
attr source  count(arrival)
attr title  "arrival perc, histogram"
bin	-INF	0
bin	0	0
bin	1	1
bin	2	0
statistic RandomGeometricGraph.rgnv[3] 	arrivalTime:histogram
field count 1
field mean 135.561
field stddev nan
field sum 135.561
field sqrsum 18376.784721
field min 135.561
field max 135.561
attr interpolationmode  none
attr source  arrivalTime
attr title  "arrival time, histogram"
bin	-INF	0
bin	135.061	0
bin	135.09433333333	0
bin	135.12766666667	0
bin	135.161	0
bin	135.19433333333	0
bin	135.22766666667	0
bin	135.261	0
bin	135.29433333333	0
bin	135.32766666667	0
bin	135.361	0
bin	135.39433333333	0
bin	135.42766666667	0
bin	135.461	0
bin	135.49433333333	0
bin	135.52766666667	0
bin	135.561	1
bin	135.59433333333	0
bin	135.62766666667	0
bin	135.661	0
bin	135.69433333333	0
bin	135.72766666667	0
bin	135.761	0
bin	135.79433333333	0
bin	135.82766666667	0
bin	135.861	0
bin	135.89433333333	0
bin	135.92766666667	0
bin	135.961	0
bin	135.99433333333	0
bin	136.02766666667	0
bin	136.061	0
statistic RandomGeometricGraph.rgnv[3] 	arrivalPerc:histogram
field count 1
field mean 1
field stddev nan
field sum 1
field sqrsum 1
field min 1
field max 1
attr interpolationmode  none
attr source  count(arrival)
attr title  "arrival perc, histogram"
bin	-INF	0
bin	0	0
bin	1	1
bin	2	0
statistic RandomGeometricGraph.rgnv[4] 	arrivalTime:histogram
field count 1
field mean 500.858
field stddev nan
field sum 500.858
field sqrsum 250858.736164
field min 500.858
field max 500.858
attr interpolationmode  none
attr source  arrivalTime
attr title  "arrival time, histogram"
bin	-INF	0
bin	500.358	0
bin	500.39133333333	0
bin	500.42466666667	0
bin	500.458	0
bin	500.49133333333	0
bin	500.52466666667	0
bin	500.558	0
bin	500.59133333333	0
bin	500.62466666667	0
bin	500.658	0
bin	500.69133333333	0
bin	500.72466666667	0
bin	500.758	0
bin	500.79133333333	0
bin	500.82466666667	0
bin	500.858	1
bin	500.89133333333	0
bin	500.92466666667	0
bin	500.958	0
bin	500.99133333333	0
bin	501.02466666667	0
bin	501.058	0
bin	501.09133333333	0
bin	501.12466666667	0
bin	501.158	0
bin	501.19133333333	0
bin	501.22466666667	0
bin	501.258	0
bin	501.29133333333	0
bin	501.32466666667	0
bin	501.358	0
statistic RandomGeometricGraph.rgnv[4] 	arrivalPerc:histogram
field count 1
field mean 1
field stddev nan
field sum 1
field sqrsum 1
field min 1
field max 1
attr interpolationmode  none
attr source  count(arrival)
attr title  "arrival perc, histogram"
bin	-INF	0
bin	0	0
bin	1	1
bin	2	0
statistic RandomGeometricGraph.rgnv[5] 	arrivalTime:histogram
field count 1
field mean 189.505
field stddev nan
field sum 189.505
field sqrsum 35912.145025
field min 189.505
field max 189.505
attr interpolationmode  none
attr source  arrivalTime
attr title  "arrival time, histogram"
bin	-INF	0
bin	189.005	0
bin	189.03833333333	0
bin	189.07166666667	0
bin	189.105	0
bin	189.13833333333	0
bin	189.17166666667	0
bin	189.205	0
bin	189.23833333333	0
bin	189.27166666667	0
bin	189.305	0
bin	189.33833333333	0
bin	189.37166666667	0
bin	189.405	0
bin	189.43833333333	0
bin	189.47166666667	0
bin	189.505	1
bin	189.53833333333	0
bin	189.57166666667	0
bin	189.605	0
bin	189.63833333333	0
bin	189.67166666667	0
bin	189.705	0
bin	189.73833333333	0
bin	189.77166666667	0
bin	189.805	0
bin	189.83833333333	0
bin	189.87166666667	0
bin	189.905	0
bin	189.93833333333	0
bin	189.97166666667	0
bin	190.005	0
statistic RandomGeometricGraph.rgnv[5] 	arrivalPerc:histogram
field count 1
field mean 1
field stddev nan
field sum 1
field sqrsum 1
field min 1
field max 1
attr interpolationmode  none
attr source  count(arrival)
attr title  "arrival perc, histogram"
bin	-INF	0
bin	0	0
bin	1	1
bin	2	0
statistic RandomGeometricGraph.rgnv[6] 	arrivalTime:histogram
field count 1
field mean 372.98
field stddev nan
field sum 372.98
field sqrsum 139114.0804
field min 372.98
field max 372.98
attr interpolationmode  none
attr source  arrivalTime
attr title  "arrival time, histogram"
bin	-INF	0
bin	372.48	0
bin	372.51333333333	0
bin	372.54666666667	0
bin	372.58	0
bin	372.61333333333	0
bin	372.64666666667	0
bin	372.68	0
bin	372.71333333333	0
bin	372.74666666667	0
bin	372.78	0
bin	372.81333333333	0
bin	372.84666666667	0
bin	372.88	0
bin	372.91333333333	0
bin	372.94666666667	0
bin	372.98	1
bin	373.01333333333	0
bin	373.04666666667	0
bin	373.08	0
bin	373.11333333333	0
bin	373.14666666667	0
bin	373.18	0
bin	373.21333333333	0
bin	373.24666666667	0
bin	373.28	0
bin	373.31333333333	0
bin	373.34666666667	0
bin	373.38	0
bin	373.41333333333	0
bin	373.44666666667	0
bin	373.48	0
statistic RandomGeometricGraph.rgnv[6] 	arrivalPerc:histogram
field count 1
field mean 1
field stddev nan
field sum 1
field sqrsum 1
field min 1
field max 1
attr interpolationmode  none
attr source  count(arrival)
attr title  "arrival perc, histogram"
bin	-INF	0
bin	0	0
bin	1	1
bin	2	0
statistic RandomGeometricGraph.rgnv[7] 	arrivalTime:histogram
field count 1
field mean 262.901
field stddev nan
field sum 262.901
field sqrsum 69116.935801
field min 262.901
field max 262.901
attr interpolationmode  none
attr source  arrivalTime
attr title  "arrival time, histogram"
bin	-INF	0
bin	262.401	0
bin	262.43433333333	0
bin	262.46766666667	0
bin	262.501	0
bin	262.53433333333	0
bin	262.56766666667	0
bin	262.601	0
bin	262.63433333333	0
bin	262.66766666667	0
bin	262.701	0
bin	262.73433333333	0
bin	262.76766666667	0
bin	262.801	0
bin	262.83433333333	0
bin	262.86766666667	0
bin	262.901	1
bin	262.93433333333	0
bin	262.96766666667	0
bin	263.001	0
bin	263.03433333333	0
bin	263.06766666667	0
bin	263.101	0
bin	263.13433333333	0
bin	263.16766666667	0
bin	263.201	0
bin	263.23433333333	0
bin	263.26766666667	0
bin	263.301	0
bin	263.33433333333	0
bin	263.36766666667	0
bin	263.401	0
statistic RandomGeometricGraph.rgnv[7] 	arrivalPerc:histogram
field count 1
field mean 1
field stddev nan
field sum 1
field sqrsum 1
field min 1
field max 1
attr interpolationmode  none
attr source  count(arrival)
attr title  "arrival perc, histogram"
bin	-INF	0
bin	0	0
bin	1	1
bin	2	0
statistic RandomGeometricGraph.rgnv[8] 	arrivalTime:histogram
field count 1
field mean 285.122
field stddev nan
field sum 285.122
field sqrsum 81294.554884
field min 285.122
field max 285.122
attr interpolationmode  none
attr source  arrivalTime
attr title  "arrival time, histogram"
bin	-INF	0
bin	284.622	0
bin	284.65533333333	0
bin	284.68866666667	0
bin	284.722	0
bin	284.75533333333	0
bin	284.78866666667	0
bin	284.822	0
bin	284.85533333333	0
bin	284.88866666667	0
bin	284.922	0
bin	284.95533333333	0
bin	284.98866666667	0
bin	285.022	0
bin	285.05533333333	0
bin	285.08866666667	0
bin	285.122	1
bin	285.15533333333	0
bin	285.18866666667	0
bin	285.222	0
bin	285.25533333333	0
bin	285.28866666667	0
bin	285.322	0
bin	285.35533333333	0
bin	285.38866666667	0
bin	285.422	0
bin	285.45533333333	0
bin	285.48866666667	0
bin	285.522	0
bin	285.55533333333	0
bin	285.58866666667	0
bin	285.622	0
statistic RandomGeometricGraph.rgnv[8] 	arrivalPerc:histogram
field count 1
field mean 1
field stddev nan
field sum 1
field sqrsum 1
field min 1
field max 1
attr interpolationmode  none
attr source  count(arrival)
attr title  "arrival perc, histogram"
bin	-INF	0
bin	0	0
bin	1	1
bin	2	0
statistic RandomGeometricGraph.rgnv[9] 	arrivalTime:histogram
field count 1
field mean 436.924
field stddev nan
field sum 436.924
field sqrsum 190902.581776
field min 436.924
field max 436.924
attr interpolationmode  none
attr source  arrivalTime
attr title  "arrival time, histogram"
bin	-INF	0
bin	436.424	0
bin	436.45733333333	0
bin	436.49066666667	0
bin	436.524	0
bin	436.55733333333	0
bin	436.59066666667	0
bin	436.624	0
bin	436.65733333333	0
bin	436.69066666667	0
bin	436.724	0
bin	436.75733333333	0
bin	436.79066666667	0
bin	436.824	0
bin	436.85733333333	0
bin	436.89066666667	0
bin	436.924	1
bin	436.95733333333	0
bin	436.99066666667	0
bin	437.024	0
bin	437.05733333333	0
bin	437.09066666667	0
bin	437.124	0
bin	437.15733333333	0
bin	437.19066666667	0
bin	437.224	0
bin	437.25733333333	0
bin	437.29066666667	0
bin	437.324	0
bin	437.35733333333	0
bin	437.39066666667	0
bin	437.424	0
statistic RandomGeometricGraph.rgnv[9] 	arrivalPerc:histogram
field count 1
field mean 1
field stddev nan
field sum 1
field sqrsum 1
field min 1
field max 1
attr interpolationmode  none
attr source  count(arrival)
attr title  "arrival perc, histogram"
bin	-INF	0
bin	0	0
bin	1	1
bin	2	0
statistic RandomGeometricGraph.rgnv[10] 	arrivalTime:histogram
field count 0
field mean nan
field stddev nan
field sum 0
field sqrsum 0
field min nan
field max nan
attr interpolationmode  none
attr source  arrivalTime
attr title  "arrival time, histogram"
bin	-INF	0
bin	-0.5	0
bin	-0.46666666666667	0
bin	-0.43333333333333	0
bin	-0.4	0
bin	-0.36666666666667	0
bin	-0.33333333333333	0
bin	-0.3	0
bin	-0.26666666666667	0
bin	-0.23333333333333	0
bin	-0.2	0
bin	-0.16666666666667	0
bin	-0.13333333333333	0
bin	-0.1	0
bin	-0.066666666666667	0
bin	-0.033333333333333	0
bin	0	0
bin	0.033333333333333	0
bin	0.066666666666667	0
bin	0.1	0
bin	0.13333333333333	0
bin	0.16666666666667	0
bin	0.2	0
bin	0.23333333333333	0
bin	0.26666666666667	0
bin	0.3	0
bin	0.33333333333333	0
bin	0.36666666666667	0
bin	0.4	0
bin	0.43333333333333	0
bin	0.46666666666667	0
bin	0.5	0
statistic RandomGeometricGraph.rgnv[10] 	arrivalPerc:histogram
field count 0
field mean nan
field stddev nan
field sum 0
field sqrsum 0
field min nan
field max nan
attr interpolationmode  none
attr source  count(arrival)
attr title  "arrival perc, histogram"
bin	-INF	0
bin	-0.5	0
bin	-0.46666666666667	0
bin	-0.43333333333333	0
bin	-0.4	0
bin	-0.36666666666667	0
bin	-0.33333333333333	0
bin	-0.3	0
bin	-0.26666666666667	0
bin	-0.23333333333333	0
bin	-0.2	0
bin	-0.16666666666667	0
bin	-0.13333333333333	0
bin	-0.1	0
bin	-0.066666666666667	0
bin	-0.033333333333333	0
bin	0	0
bin	0.033333333333333	0
bin	0.066666666666667	0
bin	0.1	0
bin	0.13333333333333	0
bin	0.16666666666667	0
bin	0.2	0
bin	0.23333333333333	0
bin	0.26666666666667	0
bin	0.3	0
bin	0.33333333333333	0
bin	0.36666666666667	0
bin	0.4	0
bin	0.43333333333333	0
bin	0.46666666666667	0
bin	0.5	0
statistic RandomGeometricGraph.rgnv[11] 	arrivalTime:histogram
field count 1
field mean 262.901
field stddev nan
field sum 262.901
field sqrsum 69116.935801
field min 262.901
field max 262.901
attr interpolationmode  none
attr source  arrivalTime
attr title  "arrival time, histogram"
bin	-INF	0
bin	262.401	0
bin	262.43433333333	0
bin	262.46766666667	0
bin	262.501	0
bin	262.53433333333	0
bin	262.56766666667	0
bin	262.601	0
bin	262.63433333333	0
bin	262.66766666667	0
bin	262.701	0
bin	262.73433333333	0
bin	262.76766666667	0
bin	262.801	0
bin	262.83433333333	0
bin	262.86766666667	0
bin	262.901	1
bin	262.93433333333	0
bin	262.96766666667	0
bin	263.001	0
bin	263.03433333333	0
bin	263.06766666667	0
bin	263.101	0
bin	263.13433333333	0
bin	263.16766666667	0
bin	263.201	0
bin	263.23433333333	0
bin	263.26766666667	0
bin	263.301	0
bin	263.33433333333	0
bin	263.36766666667	0
bin	263.401	0
statistic RandomGeometricGraph.rgnv[11] 	arrivalPerc:histogram
field count 1
field mean 1
field stddev nan
field sum 1
field sqrsum 1
field min 1
field max 1
attr interpolationmode  none
attr source  count(arrival)
attr title  "arrival perc, histogram"
bin	-INF	0
bin	0	0
bin	1	1
bin	2	0
statistic RandomGeometricGraph.rgnv[12] 	arrivalTime:histogram
field count 1
field mean 213.957
field stddev nan
field sum 213.957
field sqrsum 45777.597849
field min 213.957
field max 213.957
attr interpolationmode  none
attr source  arrivalTime
attr title  "arrival time, histogram"
bin	-INF	0
bin	213.457	0
bin	213.49033333333	0
bin	213.52366666667	0
bin	213.557	0
bin	213.59033333333	0
bin	213.62366666667	0
bin	213.657	0
bin	213.69033333333	0
bin	213.72366666667	0
bin	213.757	0
bin	213.79033333333	0
bin	213.82366666667	0
bin	213.857	0
bin	213.89033333333	0
bin	213.92366666667	0
bin	213.957	1
bin	213.99033333333	0
bin	214.02366666667	0
bin	214.057	0
bin	214.09033333333	0
bin	214.12366666667	0
bin	214.157	0
bin	214.19033333333	0
bin	214.22366666667	0
bin	214.257	0
bin	214.29033333333	0
bin	214.32366666667	0
bin	214.357	0
bin	214.39033333333	0
bin	214.42366666667	0
bin	214.457	0
statistic RandomGeometricGraph.rgnv[12] 	arrivalPerc:histogram
field count 1
field mean 1
field stddev nan
field sum 1
field sqrsum 1
field min 1
field max 1
attr interpolationmode  none
attr source  count(arrival)
attr title  "arrival perc, histogram"
bin	-INF	0
bin	0	0
bin	1	1
bin	2	0
statistic RandomGeometricGraph.rgnv[13] 	arrivalTime:histogram
field count 1
field mean 265.67
field stddev nan
field sum 265.67
field sqrsum 70580.5489
field min 265.67
field max 265.67
attr interpolationmode  none
attr source  arrivalTime
attr title  "arrival time, histogram"
bin	-INF	0
bin	265.17	0
bin	265.20333333333	0
bin	265.23666666667	0
bin	265.27	0
bin	265.30333333333	0
bin	265.33666666667	0
bin	265.37	0
bin	265.40333333333	0
bin	265.43666666667	0
bin	265.47	0
bin	265.50333333333	0
bin	265.53666666667	0
bin	265.57	0
bin	265.60333333333	0
bin	265.63666666667	0
bin	265.67	1
bin	265.70333333333	0
bin	265.73666666667	0
bin	265.77	0
bin	265.80333333333	0
bin	265.83666666667	0
bin	265.87	0
bin	265.90333333333	0
bin	265.93666666667	0
bin	265.97	0
bin	266.00333333333	0
bin	266.03666666667	0
bin	266.07	0
bin	266.10333333333	0
bin	266.13666666667	0
bin	266.17	0
statistic RandomGeometricGraph.rgnv[13] 	arrivalPerc:histogram
field count 1
field mean 1
field stddev nan
field sum 1
field sqrsum 1
field min 1
field max 1
attr interpolationmode  none
attr source  count(arrival)
attr title  "arrival perc, histogram"
bin	-INF	0
bin	0	0
bin	1	1
bin	2	0
statistic RandomGeometricGraph.rgnv[14] 	arrivalTime:histogram
field count 1
field mean 454.145
field stddev nan
field sum 454.145
field sqrsum 206247.681025
field min 454.145
field max 454.145
attr interpolationmode  none
attr source  arrivalTime
attr title  "arrival time, histogram"
bin	-INF	0
bin	453.645	0
bin	453.67833333333	0
bin	453.71166666667	0
bin	453.745	0
bin	453.77833333333	0
bin	453.81166666667	0
bin	453.845	0
bin	453.87833333333	0
bin	453.91166666667	0
bin	453.945	0
bin	453.97833333333	0
bin	454.01166666667	0
bin	454.045	0
bin	454.07833333333	0
bin	454.11166666667	0
bin	454.145	1
bin	454.17833333333	0
bin	454.21166666667	0
bin	454.245	0
bin	454.27833333333	0
bin	454.31166666667	0
bin	454.345	0
bin	454.37833333333	0
bin	454.41166666667	0
bin	454.445	0
bin	454.47833333333	0
bin	454.51166666667	0
bin	454.545	0
bin	454.57833333333	0
bin	454.61166666667	0
bin	454.645	0
statistic RandomGeometricGraph.rgnv[14] 	arrivalPerc:histogram
field count 1
field mean 1
field stddev nan
field sum 1
field sqrsum 1
field min 1
field max 1
attr interpolationmode  none
attr source  count(arrival)
attr title  "arrival perc, histogram"
bin	-INF	0
bin	0	0
bin	1	1
bin	2	0
statistic RandomGeometricGraph.rgnv[15] 	arrivalTime:histogram
field count 1
field mean 449.145
field stddev nan
field sum 449.145
field sqrsum 201731.231025
field min 449.145
field max 449.145
attr interpolationmode  none
attr source  arrivalTime
attr title  "arrival time, histogram"
bin	-INF	0
bin	448.645	0
bin	448.67833333333	0
bin	448.71166666667	0
bin	448.745	0
bin	448.77833333333	0
bin	448.81166666667	0
bin	448.845	0
bin	448.87833333333	0
bin	448.91166666667	0
bin	448.945	0
bin	448.97833333333	0
bin	449.01166666667	0
bin	449.045	0
bin	449.07833333333	0
bin	449.11166666667	0
bin	449.145	1
bin	449.17833333333	0
bin	449.21166666667	0
bin	449.245	0
bin	449.27833333333	0
bin	449.31166666667	0
bin	449.345	0
bin	449.37833333333	0
bin	449.41166666667	0
bin	449.445	0
bin	449.47833333333	0
bin	449.51166666667	0
bin	449.545	0
bin	449.57833333333	0
bin	449.61166666667	0
bin	449.645	0
statistic RandomGeometricGraph.rgnv[15] 	arrivalPerc:histogram
field count 1
field mean 1
field stddev nan
field sum 1
field sqrsum 1
field min 1
field max 1
attr interpolationmode  none
attr source  count(arrival)
attr title  "arrival perc, histogram"
bin	-INF	0
bin	0	0
bin	1	1
bin	2	0
statistic RandomGeometricGraph.rgnv[16] 	arrivalTime:histogram
field count 1
field mean 255.65
field stddev nan
field sum 255.65
field sqrsum 65356.9225
field min 255.65
field max 255.65
attr interpolationmode  none
attr source  arrivalTime
attr title  "arrival time, histogram"
bin	-INF	0
bin	255.15	0
bin	255.18333333333	0
bin	255.21666666667	0
bin	255.25	0
bin	255.28333333333	0
bin	255.31666666667	0
bin	255.35	0
bin	255.38333333333	0
bin	255.41666666667	0
bin	255.45	0
bin	255.48333333333	0
bin	255.51666666667	0
bin	255.55	0
bin	255.58333333333	0
bin	255.61666666667	0
bin	255.65	1
bin	255.68333333333	0
bin	255.71666666667	0
bin	255.75	0
bin	255.78333333333	0
bin	255.81666666667	0
bin	255.85	0
bin	255.88333333333	0
bin	255.91666666667	0
bin	255.95	0
bin	255.98333333333	0
bin	256.01666666667	0
bin	256.05	0
bin	256.08333333333	0
bin	256.11666666667	0
bin	256.15	0
statistic RandomGeometricGraph.rgnv[16] 	arrivalPerc:histogram
field count 1
field mean 1
field stddev nan
field sum 1
field sqrsum 1
field min 1
field max 1
attr interpolationmode  none
attr source  count(arrival)
attr title  "arrival perc, histogram"
bin	-INF	0
bin	0	0
bin	1	1
bin	2	0
statistic RandomGeometricGraph.rgnv[17] 	arrivalTime:histogram
field count 1
field mean 407.442
field stddev nan
field sum 407.442
field sqrsum 166008.983364
field min 407.442
field max 407.442
attr interpolationmode  none
attr source  arrivalTime
attr title  "arrival time, histogram"
bin	-INF	0
bin	406.942	0
bin	406.97533333333	0
bin	407.00866666667	0
bin	407.042	0
bin	407.07533333333	0
bin	407.10866666667	0
bin	407.142	0
bin	407.17533333333	0
bin	407.20866666667	0
bin	407.242	0
bin	407.27533333333	0
bin	407.30866666667	0
bin	407.342	0
bin	407.37533333333	0
bin	407.40866666667	0
bin	407.442	1
bin	407.47533333333	0
bin	407.50866666667	0
bin	407.542	0
bin	407.57533333333	0
bin	407.60866666667	0
bin	407.642	0
bin	407.67533333333	0
bin	407.70866666667	0
bin	407.742	0
bin	407.77533333333	0
bin	407.80866666667	0
bin	407.842	0
bin	407.87533333333	0
bin	407.90866666667	0
bin	407.942	0
statistic RandomGeometricGraph.rgnv[17] 	arrivalPerc:histogram
field count 1
field mean 1
field stddev nan
field sum 1
field sqrsum 1
field min 1
field max 1
attr interpolationmode  none
attr source  count(arrival)
attr title  "arrival perc, histogram"
bin	-INF	0
bin	0	0
bin	1	1
bin	2	0
statistic RandomGeometricGraph.rgnv[18] 	arrivalTime:histogram
field count 1
field mean 429.673
field stddev nan
field sum 429.673
field sqrsum 184618.886929
field min 429.673
field max 429.673
attr interpolationmode  none
attr source  arrivalTime
attr title  "arrival time, histogram"
bin	-INF	0
bin	429.173	0
bin	429.20633333333	0
bin	429.23966666667	0
bin	429.273	0
bin	429.30633333333	0
bin	429.33966666667	0
bin	429.373	0
bin	429.40633333333	0
bin	429.43966666667	0
bin	429.473	0
bin	429.50633333333	0
bin	429.53966666667	0
bin	429.573	0
bin	429.60633333333	0
bin	429.63966666667	0
bin	429.673	1
bin	429.70633333333	0
bin	429.73966666667	0
bin	429.773	0
bin	429.80633333333	0
bin	429.83966666667	0
bin	429.873	0
bin	429.90633333333	0
bin	429.93966666667	0
bin	429.973	0
bin	430.00633333333	0
bin	430.03966666667	0
bin	430.073	0
bin	430.10633333333	0
bin	430.13966666667	0
bin	430.173	0
statistic RandomGeometricGraph.rgnv[18] 	arrivalPerc:histogram
field count 1
field mean 1
field stddev nan
field sum 1
field sqrsum 1
field min 1
field max 1
attr interpolationmode  none
attr source  count(arrival)
attr title  "arrival perc, histogram"
bin	-INF	0
bin	0	0
bin	1	1
bin	2	0
statistic RandomGeometricGraph.rgnv[19] 	arrivalTime:histogram
field count 1
field mean 184.495
field stddev nan
field sum 184.495
field sqrsum 34038.405025
field min 184.495
field max 184.495
attr interpolationmode  none
attr source  arrivalTime
attr title  "arrival time, histogram"
bin	-INF	0
bin	183.995	0
bin	184.02833333333	0
bin	184.06166666667	0
bin	184.095	0
bin	184.12833333333	0
bin	184.16166666667	0
bin	184.195	0
bin	184.22833333333	0
bin	184.26166666667	0
bin	184.295	0
bin	184.32833333333	0
bin	184.36166666667	0
bin	184.395	0
bin	184.42833333333	0
bin	184.46166666667	0
bin	184.495	1
bin	184.52833333333	0
bin	184.56166666667	0
bin	184.595	0
bin	184.62833333333	0
bin	184.66166666667	0
bin	184.695	0
bin	184.72833333333	0
bin	184.76166666667	0
bin	184.795	0
bin	184.82833333333	0
bin	184.86166666667	0
bin	184.895	0
bin	184.92833333333	0
bin	184.96166666667	0
bin	184.995	0
statistic RandomGeometricGraph.rgnv[19] 	arrivalPerc:histogram
field count 1
field mean 1
field stddev nan
field sum 1
field sqrsum 1
field min 1
field max 1
attr interpolationmode  none
attr source  count(arrival)
attr title  "arrival perc, histogram"
bin	-INF	0
bin	0	0
bin	1	1
bin	2	0
statistic RandomGeometricGraph.rgnv[20] 	arrivalTime:histogram
field count 1
field mean 375.739
field stddev nan
field sum 375.739
field sqrsum 141179.796121
field min 375.739
field max 375.739
attr interpolationmode  none
attr source  arrivalTime
attr title  "arrival time, histogram"
bin	-INF	0
bin	375.239	0
bin	375.27233333333	0
bin	375.30566666667	0
bin	375.339	0
bin	375.37233333333	0
bin	375.40566666667	0
bin	375.439	0
bin	375.47233333333	0
bin	375.50566666667	0
bin	375.539	0
bin	375.57233333333	0
bin	375.60566666667	0
bin	375.639	0
bin	375.67233333333	0
bin	375.70566666667	0
bin	375.739	1
bin	375.77233333333	0
bin	375.80566666667	0
bin	375.839	0
bin	375.87233333333	0
bin	375.90566666667	0
bin	375.939	0
bin	375.97233333333	0
bin	376.00566666667	0
bin	376.039	0
bin	376.07233333333	0
bin	376.10566666667	0
bin	376.139	0
bin	376.17233333333	0
bin	376.20566666667	0
bin	376.239	0
statistic RandomGeometricGraph.rgnv[20] 	arrivalPerc:histogram
field count 1
field mean 1
field stddev nan
field sum 1
field sqrsum 1
field min 1
field max 1
attr interpolationmode  none
attr source  count(arrival)
attr title  "arrival perc, histogram"
bin	-INF	0
bin	0	0
bin	1	1
bin	2	0
statistic RandomGeometricGraph.rgnv[21] 	arrivalTime:histogram
field count 1
field mean 351.297
field stddev nan
field sum 351.297
field sqrsum 123409.582209
field min 351.297
field max 351.297
attr interpolationmode  none
attr source  arrivalTime
attr title  "arrival time, histogram"
bin	-INF	0
bin	350.797	0
bin	350.83033333333	0
bin	350.86366666667	0
bin	350.897	0
bin	350.93033333333	0
bin	350.96366666667	0
bin	350.997	0
bin	351.03033333333	0
bin	351.06366666667	0
bin	351.097	0
bin	351.13033333333	0
bin	351.16366666667	0
bin	351.197	0
bin	351.23033333333	0
bin	351.26366666667	0
bin	351.297	1
bin	351.33033333333	0
bin	351.36366666667	0
bin	351.397	0
bin	351.43033333333	0
bin	351.46366666667	0
bin	351.497	0
bin	351.53033333333	0
bin	351.56366666667	0
bin	351.597	0
bin	351.63033333333	0
bin	351.66366666667	0
bin	351.697	0
bin	351.73033333333	0
bin	351.76366666667	0
bin	351.797	0
statistic RandomGeometricGraph.rgnv[21] 	arrivalPerc:histogram
field count 1
field mean 1
field stddev nan
field sum 1
field sqrsum 1
field min 1
field max 1
attr interpolationmode  none
attr source  count(arrival)
attr title  "arrival perc, histogram"
bin	-INF	0
bin	0	0
bin	1	1
bin	2	0
statistic RandomGeometricGraph.rgnv[22] 	arrivalTime:histogram
field count 1
field mean 309.584
field stddev nan
field sum 309.584
field sqrsum 95842.253056
field min 309.584
field max 309.584
attr interpolationmode  none
attr source  arrivalTime
attr title  "arrival time, histogram"
bin	-INF	0
bin	309.084	0
bin	309.11733333333	0
bin	309.15066666667	0
bin	309.184	0
bin	309.21733333333	0
bin	309.25066666667	0
bin	309.284	0
bin	309.31733333333	0
bin	309.35066666667	0
bin	309.384	0
bin	309.41733333333	0
bin	309.45066666667	0
bin	309.484	0
bin	309.51733333333	0
bin	309.55066666667	0
bin	309.584	1
bin	309.61733333333	0
bin	309.65066666667	0
bin	309.684	0
bin	309.71733333333	0
bin	309.75066666667	0
bin	309.784	0
bin	309.81733333333	0
bin	309.85066666667	0
bin	309.884	0
bin	309.91733333333	0
bin	309.95066666667	0
bin	309.984	0
bin	310.01733333333	0
bin	310.05066666667	0
bin	310.084	0
statistic RandomGeometricGraph.rgnv[22] 	arrivalPerc:histogram
field count 1
field mean 1
field stddev nan
field sum 1
field sqrsum 1
field min 1
field max 1
attr interpolationmode  none
attr source  count(arrival)
attr title  "arrival perc, histogram"
bin	-INF	0
bin	0	0
bin	1	1
bin	2	0
statistic RandomGeometricGraph.rgnv[23] 	arrivalTime:histogram
field count 0
field mean nan
field stddev nan
field sum 0
field sqrsum 0
field min nan
field max nan
attr interpolationmode  none
attr source  arrivalTime
attr title  "arrival time, histogram"
bin	-INF	0
bin	-0.5	0
bin	-0.46666666666667	0
bin	-0.43333333333333	0
bin	-0.4	0
bin	-0.36666666666667	0
bin	-0.33333333333333	0
bin	-0.3	0
bin	-0.26666666666667	0
bin	-0.23333333333333	0
bin	-0.2	0
bin	-0.16666666666667	0
bin	-0.13333333333333	0
bin	-0.1	0
bin	-0.066666666666667	0
bin	-0.033333333333333	0
bin	0	0
bin	0.033333333333333	0
bin	0.066666666666667	0
bin	0.1	0
bin	0.13333333333333	0
bin	0.16666666666667	0
bin	0.2	0
bin	0.23333333333333	0
bin	0.26666666666667	0
bin	0.3	0
bin	0.33333333333333	0
bin	0.36666666666667	0
bin	0.4	0
bin	0.43333333333333	0
bin	0.46666666666667	0
bin	0.5	0
statistic RandomGeometricGraph.rgnv[23] 	arrivalPerc:histogram
field count 0
field mean nan
field stddev nan
field sum 0
field sqrsum 0
field min nan
field max nan
attr interpolationmode  none
attr source  count(arrival)
attr title  "arrival perc, histogram"
bin	-INF	0
bin	-0.5	0
bin	-0.46666666666667	0
bin	-0.43333333333333	0
bin	-0.4	0
bin	-0.36666666666667	0
bin	-0.33333333333333	0
bin	-0.3	0
bin	-0.26666666666667	0
bin	-0.23333333333333	0
bin	-0.2	0
bin	-0.16666666666667	0
bin	-0.13333333333333	0
bin	-0.1	0
bin	-0.066666666666667	0
bin	-0.033333333333333	0
bin	0	0
bin	0.033333333333333	0
bin	0.066666666666667	0
bin	0.1	0
bin	0.13333333333333	0
bin	0.16666666666667	0
bin	0.2	0
bin	0.23333333333333	0
bin	0.26666666666667	0
bin	0.3	0
bin	0.33333333333333	0
bin	0.36666666666667	0
bin	0.4	0
bin	0.43333333333333	0
bin	0.46666666666667	0
bin	0.5	0
statistic RandomGeometricGraph.rgnv[24] 	arrivalTime:histogram
field count 1
field mean 262.891
field stddev nan
field sum 262.891
field sqrsum 69111.677881
field min 262.891
field max 262.891
attr interpolationmode  none
attr source  arrivalTime
attr title  "arrival time, histogram"
bin	-INF	0
bin	262.391	0
bin	262.42433333333	0
bin	262.45766666667	0
bin	262.491	0
bin	262.52433333333	0
bin	262.55766666667	0
bin	262.591	0
bin	262.62433333333	0
bin	262.65766666667	0
bin	262.691	0
bin	262.72433333333	0
bin	262.75766666667	0
bin	262.791	0
bin	262.82433333333	0
bin	262.85766666667	0
bin	262.891	1
bin	262.92433333333	0
bin	262.95766666667	0
bin	262.991	0
bin	263.02433333333	0
bin	263.05766666667	0
bin	263.091	0
bin	263.12433333333	0
bin	263.15766666667	0
bin	263.191	0
bin	263.22433333333	0
bin	263.25766666667	0
bin	263.291	0
bin	263.32433333333	0
bin	263.35766666667	0
bin	263.391	0
statistic RandomGeometricGraph.rgnv[24] 	arrivalPerc:histogram
field count 1
field mean 1
field stddev nan
field sum 1
field sqrsum 1
field min 1
field max 1
attr interpolationmode  none
attr source  count(arrival)
attr title  "arrival perc, histogram"
bin	-INF	0
bin	0	0
bin	1	1
bin	2	0
statistic RandomGeometricGraph.rgnv[25] 	arrivalTime:histogram
field count 1
field mean 250.66
field stddev nan
field sum 250.66
field sqrsum 62830.4356
field min 250.66
field max 250.66
attr interpolationmode  none
attr source  arrivalTime
attr title  "arrival time, histogram"
bin	-INF	0
bin	250.16	0
bin	250.19333333333	0
bin	250.22666666667	0
bin	250.26	0
bin	250.29333333333	0
bin	250.32666666667	0
bin	250.36	0
bin	250.39333333333	0
bin	250.42666666667	0
bin	250.46	0
bin	250.49333333333	0
bin	250.52666666667	0
bin	250.56	0
bin	250.59333333333	0
bin	250.62666666667	0
bin	250.66	1
bin	250.69333333333	0
bin	250.72666666667	0
bin	250.76	0
bin	250.79333333333	0
bin	250.82666666667	0
bin	250.86	0
bin	250.89333333333	0
bin	250.92666666667	0
bin	250.96	0
bin	250.99333333333	0
bin	251.02666666667	0
bin	251.06	0
bin	251.09333333333	0
bin	251.12666666667	0
bin	251.16	0
statistic RandomGeometricGraph.rgnv[25] 	arrivalPerc:histogram
field count 1
field mean 1
field stddev nan
field sum 1
field sqrsum 1
field min 1
field max 1
attr interpolationmode  none
attr source  count(arrival)
attr title  "arrival perc, histogram"
bin	-INF	0
bin	0	0
bin	1	1
bin	2	0
statistic RandomGeometricGraph.rgnv[26] 	arrivalTime:histogram
field count 1
field mean 422.462
field stddev nan
field sum 422.462
field sqrsum 178474.141444
field min 422.462
field max 422.462
attr interpolationmode  none
attr source  arrivalTime
attr title  "arrival time, histogram"
bin	-INF	0
bin	421.962	0
bin	421.99533333333	0
bin	422.02866666667	0
bin	422.062	0
bin	422.09533333333	0
bin	422.12866666667	0
bin	422.162	0
bin	422.19533333333	0
bin	422.22866666667	0
bin	422.262	0
bin	422.29533333333	0
bin	422.32866666667	0
bin	422.362	0
bin	422.39533333333	0
bin	422.42866666667	0
bin	422.462	1
bin	422.49533333333	0
bin	422.52866666667	0
bin	422.562	0
bin	422.59533333333	0
bin	422.62866666667	0
bin	422.662	0
bin	422.69533333333	0
bin	422.72866666667	0
bin	422.762	0
bin	422.79533333333	0
bin	422.82866666667	0
bin	422.862	0
bin	422.89533333333	0
bin	422.92866666667	0
bin	422.962	0
statistic RandomGeometricGraph.rgnv[26] 	arrivalPerc:histogram
field count 1
field mean 1
field stddev nan
field sum 1
field sqrsum 1
field min 1
field max 1
attr interpolationmode  none
attr source  count(arrival)
attr title  "arrival perc, histogram"
bin	-INF	0
bin	0	0
bin	1	1
bin	2	0
statistic RandomGeometricGraph.rgnv[27] 	arrivalTime:histogram
field count 1
field mean 165.023
field stddev nan
field sum 165.023
field sqrsum 27232.590529
field min 165.023
field max 165.023
attr interpolationmode  none
attr source  arrivalTime
attr title  "arrival time, histogram"
bin	-INF	0
bin	164.523	0
bin	164.55633333333	0
bin	164.58966666667	0
bin	164.623	0
bin	164.65633333333	0
bin	164.68966666667	0
bin	164.723	0
bin	164.75633333333	0
bin	164.78966666667	0
bin	164.823	0
bin	164.85633333333	0
bin	164.88966666667	0
bin	164.923	0
bin	164.95633333333	0
bin	164.98966666667	0
bin	165.023	1
bin	165.05633333333	0
bin	165.08966666667	0
bin	165.123	0
bin	165.15633333333	0
bin	165.18966666667	0
bin	165.223	0
bin	165.25633333333	0
bin	165.28966666667	0
bin	165.323	0
bin	165.35633333333	0
bin	165.38966666667	0
bin	165.423	0
bin	165.45633333333	0
bin	165.48966666667	0
bin	165.523	0
statistic RandomGeometricGraph.rgnv[27] 	arrivalPerc:histogram
field count 1
field mean 1
field stddev nan
field sum 1
field sqrsum 1
field min 1
field max 1
attr interpolationmode  none
attr source  count(arrival)
attr title  "arrival perc, histogram"
bin	-INF	0
bin	0	0
bin	1	1
bin	2	0
statistic RandomGeometricGraph.rgnv[28] 	arrivalTime:histogram
field count 1
field mean 74.396
field stddev nan
field sum 74.396
field sqrsum 5534.764816
field min 74.396
field max 74.396
attr interpolationmode  none
attr source  arrivalTime
attr title  "arrival time, histogram"
bin	-INF	0
bin	73.896	0
bin	73.929333333333	0
bin	73.962666666667	0
bin	73.996	0
bin	74.029333333333	0
bin	74.062666666667	0
bin	74.096	0
bin	74.129333333333	0
bin	74.162666666667	0
bin	74.196	0
bin	74.229333333333	0
bin	74.262666666667	0
bin	74.296	0
bin	74.329333333333	0
bin	74.362666666667	0
bin	74.396	1
bin	74.429333333333	0
bin	74.462666666667	0
bin	74.496	0
bin	74.529333333333	0
bin	74.562666666667	0
bin	74.596	0
bin	74.629333333333	0
bin	74.662666666667	0
bin	74.696	0
bin	74.729333333333	0
bin	74.762666666667	0
bin	74.796	0
bin	74.829333333333	0
bin	74.862666666667	0
bin	74.896	0
statistic RandomGeometricGraph.rgnv[28] 	arrivalPerc:histogram
field count 1
field mean 1
field stddev nan
field sum 1
field sqrsum 1
field min 1
field max 1
attr interpolationmode  none
attr source  count(arrival)
attr title  "arrival perc, histogram"
bin	-INF	0
bin	0	0
bin	1	1
bin	2	0
statistic RandomGeometricGraph.rgnv[29] 	arrivalTime:histogram
field count 1
field mean 417.452
field stddev nan
field sum 417.452
field sqrsum 174266.172304
field min 417.452
field max 417.452
attr interpolationmode  none
attr source  arrivalTime
attr title  "arrival time, histogram"
bin	-INF	0
bin	416.952	0
bin	416.98533333333	0
bin	417.01866666667	0
bin	417.052	0
bin	417.08533333333	0
bin	417.11866666667	0
bin	417.152	0
bin	417.18533333333	0
bin	417.21866666667	0
bin	417.252	0
bin	417.28533333333	0
bin	417.31866666667	0
bin	417.352	0
bin	417.38533333333	0
bin	417.41866666667	0
bin	417.452	1
bin	417.48533333333	0
bin	417.51866666667	0
bin	417.552	0
bin	417.58533333333	0
bin	417.61866666667	0
bin	417.652	0
bin	417.68533333333	0
bin	417.71866666667	0
bin	417.752	0
bin	417.78533333333	0
bin	417.81866666667	0
bin	417.852	0
bin	417.88533333333	0
bin	417.91866666667	0
bin	417.952	0
statistic RandomGeometricGraph.rgnv[29] 	arrivalPerc:histogram
field count 1
field mean 1
field stddev nan
field sum 1
field sqrsum 1
field min 1
field max 1
attr interpolationmode  none
attr source  count(arrival)
attr title  "arrival perc, histogram"
bin	-INF	0
bin	0	0
bin	1	1
bin	2	0
statistic RandomGeometricGraph.rgnv[30] 	arrivalTime:histogram
field count 0
field mean nan
field stddev nan
field sum 0
field sqrsum 0
field min nan
field max nan
attr interpolationmode  none
attr source  arrivalTime
attr title  "arrival time, histogram"
bin	-INF	0
bin	-0.5	0
bin	-0.46666666666667	0
bin	-0.43333333333333	0
bin	-0.4	0
bin	-0.36666666666667	0
bin	-0.33333333333333	0
bin	-0.3	0
bin	-0.26666666666667	0
bin	-0.23333333333333	0
bin	-0.2	0
bin	-0.16666666666667	0
bin	-0.13333333333333	0
bin	-0.1	0
bin	-0.066666666666667	0
bin	-0.033333333333333	0
bin	0	0
bin	0.033333333333333	0
bin	0.066666666666667	0
bin	0.1	0
bin	0.13333333333333	0
bin	0.16666666666667	0
bin	0.2	0
bin	0.23333333333333	0
bin	0.26666666666667	0
bin	0.3	0
bin	0.33333333333333	0
bin	0.36666666666667	0
bin	0.4	0
bin	0.43333333333333	0
bin	0.46666666666667	0
bin	0.5	0
statistic RandomGeometricGraph.rgnv[30] 	arrivalPerc:histogram
field count 0
field mean nan
field stddev nan
field sum 0
field sqrsum 0
field min nan
field max nan
attr interpolationmode  none
attr source  count(arrival)
attr title  "arrival perc, histogram"
bin	-INF	0
bin	-0.5	0
bin	-0.46666666666667	0
bin	-0.43333333333333	0
bin	-0.4	0
bin	-0.36666666666667	0
bin	-0.33333333333333	0
bin	-0.3	0
bin	-0.26666666666667	0
bin	-0.23333333333333	0
bin	-0.2	0
bin	-0.16666666666667	0
bin	-0.13333333333333	0
bin	-0.1	0
bin	-0.066666666666667	0
bin	-0.033333333333333	0
bin	0	0
bin	0.033333333333333	0
bin	0.066666666666667	0
bin	0.1	0
bin	0.13333333333333	0
bin	0.16666666666667	0
bin	0.2	0
bin	0.23333333333333	0
bin	0.26666666666667	0
bin	0.3	0
bin	0.33333333333333	0
bin	0.36666666666667	0
bin	0.4	0
bin	0.43333333333333	0
bin	0.46666666666667	0
bin	0.5	0
statistic RandomGeometricGraph.rgnv[31] 	arrivalTime:histogram
field count 1
field mean 257.911
field stddev nan
field sum 257.911
field sqrsum 66518.083921
field min 257.911
field max 257.911
attr interpolationmode  none
attr source  arrivalTime
attr title  "arrival time, histogram"
bin	-INF	0
bin	257.411	0
bin	257.44433333333	0
bin	257.47766666667	0
bin	257.511	0
bin	257.54433333333	0
bin	257.57766666667	0
bin	257.611	0
bin	257.64433333333	0
bin	257.67766666667	0
bin	257.711	0
bin	257.74433333333	0
bin	257.77766666667	0
bin	257.811	0
bin	257.84433333333	0
bin	257.87766666667	0
bin	257.911	1
bin	257.94433333333	0
bin	257.97766666667	0
bin	258.011	0
bin	258.04433333333	0
bin	258.07766666667	0
bin	258.111	0
bin	258.14433333333	0
bin	258.17766666667	0
bin	258.211	0
bin	258.24433333333	0
bin	258.27766666667	0
bin	258.311	0
bin	258.34433333333	0
bin	258.37766666667	0
bin	258.411	0
statistic RandomGeometricGraph.rgnv[31] 	arrivalPerc:histogram
field count 1
field mean 1
field stddev nan
field sum 1
field sqrsum 1
field min 1
field max 1
attr interpolationmode  none
attr source  count(arrival)
attr title  "arrival perc, histogram"
bin	-INF	0
bin	0	0
bin	1	1
bin	2	0
statistic RandomGeometricGraph.rgnv[32] 	arrivalTime:histogram
field count 0
field mean nan
field stddev nan
field sum 0
field sqrsum 0
field min nan
field max nan
attr interpolationmode  none
attr source  arrivalTime
attr title  "arrival time, histogram"
bin	-INF	0
bin	-0.5	0
bin	-0.46666666666667	0
bin	-0.43333333333333	0
bin	-0.4	0
bin	-0.36666666666667	0
bin	-0.33333333333333	0
bin	-0.3	0
bin	-0.26666666666667	0
bin	-0.23333333333333	0
bin	-0.2	0
bin	-0.16666666666667	0
bin	-0.13333333333333	0
bin	-0.1	0
bin	-0.066666666666667	0
bin	-0.033333333333333	0
bin	0	0
bin	0.033333333333333	0
bin	0.066666666666667	0
bin	0.1	0
bin	0.13333333333333	0
bin	0.16666666666667	0
bin	0.2	0
bin	0.23333333333333	0
bin	0.26666666666667	0
bin	0.3	0
bin	0.33333333333333	0
bin	0.36666666666667	0
bin	0.4	0
bin	0.43333333333333	0
bin	0.46666666666667	0
bin	0.5	0
statistic RandomGeometricGraph.rgnv[32] 	arrivalPerc:histogram
field count 0
field mean nan
field stddev nan
field sum 0
field sqrsum 0
field min nan
field max nan
attr interpolationmode  none
attr source  count(arrival)
attr title  "arrival perc, histogram"
bin	-INF	0
bin	-0.5	0
bin	-0.46666666666667	0
bin	-0.43333333333333	0
bin	-0.4	0
bin	-0.36666666666667	0
bin	-0.33333333333333	0
bin	-0.3	0
bin	-0.26666666666667	0
bin	-0.23333333333333	0
bin	-0.2	0
bin	-0.16666666666667	0
bin	-0.13333333333333	0
bin	-0.1	0
bin	-0.066666666666667	0
bin	-0.033333333333333	0
bin	0	0
bin	0.033333333333333	0
bin	0.066666666666667	0
bin	0.1	0
bin	0.13333333333333	0
bin	0.16666666666667	0
bin	0.2	0
bin	0.23333333333333	0
bin	0.26666666666667	0
bin	0.3	0
bin	0.33333333333333	0
bin	0.36666666666667	0
bin	0.4	0
bin	0.43333333333333	0
bin	0.46666666666667	0
bin	0.5	0
statistic RandomGeometricGraph.rgnv[33] 	arrivalTime:histogram
field count 1
field mean 410.231
field stddev nan
field sum 410.231
field sqrsum 168289.473361
field min 410.231
field max 410.231
attr interpolationmode  none
attr source  arrivalTime
attr title  "arrival time, histogram"
bin	-INF	0
bin	409.731	0
bin	409.76433333333	0
bin	409.79766666667	0
bin	409.831	0
bin	409.86433333333	0
bin	409.89766666667	0
bin	409.931	0
bin	409.96433333333	0
bin	409.99766666667	0
bin	410.031	0
bin	410.06433333333	0
bin	410.09766666667	0
bin	410.131	0
bin	410.16433333333	0
bin	410.19766666667	0
bin	410.231	1
bin	410.26433333333	0
bin	410.29766666667	0
bin	410.331	0
bin	410.36433333333	0
bin	410.39766666667	0
bin	410.431	0
bin	410.46433333333	0
bin	410.49766666667	0
bin	410.531	0
bin	410.56433333333	0
bin	410.59766666667	0
bin	410.631	0
bin	410.66433333333	0
bin	410.69766666667	0
bin	410.731	0
statistic RandomGeometricGraph.rgnv[33] 	arrivalPerc:histogram
field count 1
field mean 1
field stddev nan
field sum 1
field sqrsum 1
field min 1
field max 1
attr interpolationmode  none
attr source  count(arrival)
attr title  "arrival perc, histogram"
bin	-INF	0
bin	0	0
bin	1	1
bin	2	0
statistic RandomGeometricGraph.rgnv[34] 	arrivalTime:histogram
field count 1
field mean 382.97
field stddev nan
field sum 382.97
field sqrsum 146666.0209
field min 382.97
field max 382.97
attr interpolationmode  none
attr source  arrivalTime
attr title  "arrival time, histogram"
bin	-INF	0
bin	382.47	0
bin	382.50333333333	0
bin	382.53666666667	0
bin	382.57	0
bin	382.60333333333	0
bin	382.63666666667	0
bin	382.67	0
bin	382.70333333333	0
bin	382.73666666667	0
bin	382.77	0
bin	382.80333333333	0
bin	382.83666666667	0
bin	382.87	0
bin	382.90333333333	0
bin	382.93666666667	0
bin	382.97	1
bin	383.00333333333	0
bin	383.03666666667	0
bin	383.07	0
bin	383.10333333333	0
bin	383.13666666667	0
bin	383.17	0
bin	383.20333333333	0
bin	383.23666666667	0
bin	383.27	0
bin	383.30333333333	0
bin	383.33666666667	0
bin	383.37	0
bin	383.40333333333	0
bin	383.43666666667	0
bin	383.47	0
statistic RandomGeometricGraph.rgnv[34] 	arrivalPerc:histogram
field count 1
field mean 1
field stddev nan
field sum 1
field sqrsum 1
field min 1
field max 1
attr interpolationmode  none
attr source  count(arrival)
attr title  "arrival perc, histogram"
bin	-INF	0
bin	0	0
bin	1	1
bin	2	0
statistic RandomGeometricGraph.rgnv[35] 	arrivalTime:histogram
field count 1
field mean 461.356
field stddev nan
field sum 461.356
field sqrsum 212849.358736
field min 461.356
field max 461.356
attr interpolationmode  none
attr source  arrivalTime
attr title  "arrival time, histogram"
bin	-INF	0
bin	460.856	0
bin	460.88933333333	0
bin	460.92266666667	0
bin	460.956	0
bin	460.98933333333	0
bin	461.02266666667	0
bin	461.056	0
bin	461.08933333333	0
bin	461.12266666667	0
bin	461.156	0
bin	461.18933333333	0
bin	461.22266666667	0
bin	461.256	0
bin	461.28933333333	0
bin	461.32266666667	0
bin	461.356	1
bin	461.38933333333	0
bin	461.42266666667	0
bin	461.456	0
bin	461.48933333333	0
bin	461.52266666667	0
bin	461.556	0
bin	461.58933333333	0
bin	461.62266666667	0
bin	461.656	0
bin	461.68933333333	0
bin	461.72266666667	0
bin	461.756	0
bin	461.78933333333	0
bin	461.82266666667	0
bin	461.856	0
statistic RandomGeometricGraph.rgnv[35] 	arrivalPerc:histogram
field count 1
field mean 1
field stddev nan
field sum 1
field sqrsum 1
field min 1
field max 1
attr interpolationmode  none
attr source  count(arrival)
attr title  "arrival perc, histogram"
bin	-INF	0
bin	0	0
bin	1	1
bin	2	0
statistic RandomGeometricGraph.rgnv[36] 	arrivalTime:histogram
field count 0
field mean nan
field stddev nan
field sum 0
field sqrsum 0
field min nan
field max nan
attr interpolationmode  none
attr source  arrivalTime
attr title  "arrival time, histogram"
bin	-INF	0
bin	-0.5	0
bin	-0.46666666666667	0
bin	-0.43333333333333	0
bin	-0.4	0
bin	-0.36666666666667	0
bin	-0.33333333333333	0
bin	-0.3	0
bin	-0.26666666666667	0
bin	-0.23333333333333	0
bin	-0.2	0
bin	-0.16666666666667	0
bin	-0.13333333333333	0
bin	-0.1	0
bin	-0.066666666666667	0
bin	-0.033333333333333	0
bin	0	0
bin	0.033333333333333	0
bin	0.066666666666667	0
bin	0.1	0
bin	0.13333333333333	0
bin	0.16666666666667	0
bin	0.2	0
bin	0.23333333333333	0
bin	0.26666666666667	0
bin	0.3	0
bin	0.33333333333333	0
bin	0.36666666666667	0
bin	0.4	0
bin	0.43333333333333	0
bin	0.46666666666667	0
bin	0.5	0
statistic RandomGeometricGraph.rgnv[36] 	arrivalPerc:histogram
field count 0
field mean nan
field stddev nan
field sum 0
field sqrsum 0
field min nan
field max nan
attr interpolationmode  none
attr source  count(arrival)
attr title  "arrival perc, histogram"
bin	-INF	0
bin	-0.5	0
bin	-0.46666666666667	0
bin	-0.43333333333333	0
bin	-0.4	0
bin	-0.36666666666667	0
bin	-0.33333333333333	0
bin	-0.3	0
bin	-0.26666666666667	0
bin	-0.23333333333333	0
bin	-0.2	0
bin	-0.16666666666667	0
bin	-0.13333333333333	0
bin	-0.1	0
bin	-0.066666666666667	0
bin	-0.033333333333333	0
bin	0	0
bin	0.033333333333333	0
bin	0.066666666666667	0
bin	0.1	0
bin	0.13333333333333	0
bin	0.16666666666667	0
bin	0.2	0
bin	0.23333333333333	0
bin	0.26666666666667	0
bin	0.3	0
bin	0.33333333333333	0
bin	0.36666666666667	0
bin	0.4	0
bin	0.43333333333333	0
bin	0.46666666666667	0
bin	0.5	0
statistic RandomGeometricGraph.rgnv[37] 	arrivalTime:histogram
field count 1
field mean 331.277
field stddev nan
field sum 331.277
field sqrsum 109744.450729
field min 331.277
field max 331.277
attr interpolationmode  none
attr source  arrivalTime
attr title  "arrival time, histogram"
bin	-INF	0
bin	330.777	0
bin	330.81033333333	0
bin	330.84366666667	0
bin	330.877	0
bin	330.91033333333	0
bin	330.94366666667	0
bin	330.977	0
bin	331.01033333333	0
bin	331.04366666667	0
bin	331.077	0
bin	331.11033333333	0
bin	331.14366666667	0
bin	331.177	0
bin	331.21033333333	0
bin	331.24366666667	0
bin	331.277	1
bin	331.31033333333	0
bin	331.34366666667	0
bin	331.377	0
bin	331.41033333333	0
bin	331.44366666667	0
bin	331.477	0
bin	331.51033333333	0
bin	331.54366666667	0
bin	331.577	0
bin	331.61033333333	0
bin	331.64366666667	0
bin	331.677	0
bin	331.71033333333	0
bin	331.74366666667	0
bin	331.777	0
statistic RandomGeometricGraph.rgnv[37] 	arrivalPerc:histogram
field count 1
field mean 1
field stddev nan
field sum 1
field sqrsum 1
field min 1
field max 1
attr interpolationmode  none
attr source  count(arrival)
attr title  "arrival perc, histogram"
bin	-INF	0
bin	0	0
bin	1	1
bin	2	0
statistic RandomGeometricGraph.rgnv[38] 	arrivalTime:histogram
field count 1
field mean 231.188
field stddev nan
field sum 231.188
field sqrsum 53447.891344
field min 231.188
field max 231.188
attr interpolationmode  none
attr source  arrivalTime
attr title  "arrival time, histogram"
bin	-INF	0
bin	230.688	0
bin	230.72133333333	0
bin	230.75466666667	0
bin	230.788	0
bin	230.82133333333	0
bin	230.85466666667	0
bin	230.888	0
bin	230.92133333333	0
bin	230.95466666667	0
bin	230.988	0
bin	231.02133333333	0
bin	231.05466666667	0
bin	231.088	0
bin	231.12133333333	0
bin	231.15466666667	0
bin	231.188	1
bin	231.22133333333	0
bin	231.25466666667	0
bin	231.288	0
bin	231.32133333333	0
bin	231.35466666667	0
bin	231.388	0
bin	231.42133333333	0
bin	231.45466666667	0
bin	231.488	0
bin	231.52133333333	0
bin	231.55466666667	0
bin	231.588	0
bin	231.62133333333	0
bin	231.65466666667	0
bin	231.688	0
statistic RandomGeometricGraph.rgnv[38] 	arrivalPerc:histogram
field count 1
field mean 1
field stddev nan
field sum 1
field sqrsum 1
field min 1
field max 1
attr interpolationmode  none
attr source  count(arrival)
attr title  "arrival perc, histogram"
bin	-INF	0
bin	0	0
bin	1	1
bin	2	0
statistic RandomGeometricGraph.rgnv[39] 	arrivalTime:histogram
field count 1
field mean 387.98
field stddev nan
field sum 387.98
field sqrsum 150528.4804
field min 387.98
field max 387.98
attr interpolationmode  none
attr source  arrivalTime
attr title  "arrival time, histogram"
bin	-INF	0
bin	387.48	0
bin	387.51333333333	0
bin	387.54666666667	0
bin	387.58	0
bin	387.61333333333	0
bin	387.64666666667	0
bin	387.68	0
bin	387.71333333333	0
bin	387.74666666667	0
bin	387.78	0
bin	387.81333333333	0
bin	387.84666666667	0
bin	387.88	0
bin	387.91333333333	0
bin	387.94666666667	0
bin	387.98	1
bin	388.01333333333	0
bin	388.04666666667	0
bin	388.08	0
bin	388.11333333333	0
bin	388.14666666667	0
bin	388.18	0
bin	388.21333333333	0
bin	388.24666666667	0
bin	388.28	0
bin	388.31333333333	0
bin	388.34666666667	0
bin	388.38	0
bin	388.41333333333	0
bin	388.44666666667	0
bin	388.48	0
statistic RandomGeometricGraph.rgnv[39] 	arrivalPerc:histogram
field count 1
field mean 1
field stddev nan
field sum 1
field sqrsum 1
field min 1
field max 1
attr interpolationmode  none
attr source  count(arrival)
attr title  "arrival perc, histogram"
bin	-INF	0
bin	0	0
bin	1	1
bin	2	0
statistic RandomGeometricGraph.rgnv[40] 	arrivalTime:histogram
field count 1
field mean 309.584
field stddev nan
field sum 309.584
field sqrsum 95842.253056
field min 309.584
field max 309.584
attr interpolationmode  none
attr source  arrivalTime
attr title  "arrival time, histogram"
bin	-INF	0
bin	309.084	0
bin	309.11733333333	0
bin	309.15066666667	0
bin	309.184	0
bin	309.21733333333	0
bin	309.25066666667	0
bin	309.284	0
bin	309.31733333333	0
bin	309.35066666667	0
bin	309.384	0
bin	309.41733333333	0
bin	309.45066666667	0
bin	309.484	0
bin	309.51733333333	0
bin	309.55066666667	0
bin	309.584	1
bin	309.61733333333	0
bin	309.65066666667	0
bin	309.684	0
bin	309.71733333333	0
bin	309.75066666667	0
bin	309.784	0
bin	309.81733333333	0
bin	309.85066666667	0
bin	309.884	0
bin	309.91733333333	0
bin	309.95066666667	0
bin	309.984	0
bin	310.01733333333	0
bin	310.05066666667	0
bin	310.084	0
statistic RandomGeometricGraph.rgnv[40] 	arrivalPerc:histogram
field count 1
field mean 1
field stddev nan
field sum 1
field sqrsum 1
field min 1
field max 1
attr interpolationmode  none
attr source  count(arrival)
attr title  "arrival perc, histogram"
bin	-INF	0
bin	0	0
bin	1	1
bin	2	0
statistic RandomGeometricGraph.rgnv[41] 	arrivalTime:histogram
field count 1
field mean 267.881
field stddev nan
field sum 267.881
field sqrsum 71760.230161
field min 267.881
field max 267.881
attr interpolationmode  none
attr source  arrivalTime
attr title  "arrival time, histogram"
bin	-INF	0
bin	267.381	0
bin	267.41433333333	0
bin	267.44766666667	0
bin	267.481	0
bin	267.51433333333	0
bin	267.54766666667	0
bin	267.581	0
bin	267.61433333333	0
bin	267.64766666667	0
bin	267.681	0
bin	267.71433333333	0
bin	267.74766666667	0
bin	267.781	0
bin	267.81433333333	0
bin	267.84766666667	0
bin	267.881	1
bin	267.91433333333	0
bin	267.94766666667	0
bin	267.981	0
bin	268.01433333333	0
bin	268.04766666667	0
bin	268.081	0
bin	268.11433333333	0
bin	268.14766666667	0
bin	268.181	0
bin	268.21433333333	0
bin	268.24766666667	0
bin	268.281	0
bin	268.31433333333	0
bin	268.34766666667	0
bin	268.381	0
statistic RandomGeometricGraph.rgnv[41] 	arrivalPerc:histogram
field count 1
field mean 1
field stddev nan
field sum 1
field sqrsum 1
field min 1
field max 1
attr interpolationmode  none
attr source  count(arrival)
attr title  "arrival perc, histogram"
bin	-INF	0
bin	0	0
bin	1	1
bin	2	0
statistic RandomGeometricGraph.rgnv[42] 	arrivalTime:histogram
field count 0
field mean nan
field stddev nan
field sum 0
field sqrsum 0
field min nan
field max nan
attr interpolationmode  none
attr source  arrivalTime
attr title  "arrival time, histogram"
bin	-INF	0
bin	-0.5	0
bin	-0.46666666666667	0
bin	-0.43333333333333	0
bin	-0.4	0
bin	-0.36666666666667	0
bin	-0.33333333333333	0
bin	-0.3	0
bin	-0.26666666666667	0
bin	-0.23333333333333	0
bin	-0.2	0
bin	-0.16666666666667	0
bin	-0.13333333333333	0
bin	-0.1	0
bin	-0.066666666666667	0
bin	-0.033333333333333	0
bin	0	0
bin	0.033333333333333	0
bin	0.066666666666667	0
bin	0.1	0
bin	0.13333333333333	0
bin	0.16666666666667	0
bin	0.2	0
bin	0.23333333333333	0
bin	0.26666666666667	0
bin	0.3	0
bin	0.33333333333333	0
bin	0.36666666666667	0
bin	0.4	0
bin	0.43333333333333	0
bin	0.46666666666667	0
bin	0.5	0
statistic RandomGeometricGraph.rgnv[42] 	arrivalPerc:histogram
field count 0
field mean nan
field stddev nan
field sum 0
field sqrsum 0
field min nan
field max nan
attr interpolationmode  none
attr source  count(arrival)
attr title  "arrival perc, histogram"
bin	-INF	0
bin	-0.5	0
bin	-0.46666666666667	0
bin	-0.43333333333333	0
bin	-0.4	0
bin	-0.36666666666667	0
bin	-0.33333333333333	0
bin	-0.3	0
bin	-0.26666666666667	0
bin	-0.23333333333333	0
bin	-0.2	0
bin	-0.16666666666667	0
bin	-0.13333333333333	0
bin	-0.1	0
bin	-0.066666666666667	0
bin	-0.033333333333333	0
bin	0	0
bin	0.033333333333333	0
bin	0.066666666666667	0
bin	0.1	0
bin	0.13333333333333	0
bin	0.16666666666667	0
bin	0.2	0
bin	0.23333333333333	0
bin	0.26666666666667	0
bin	0.3	0
bin	0.33333333333333	0
bin	0.36666666666667	0
bin	0.4	0
bin	0.43333333333333	0
bin	0.46666666666667	0
bin	0.5	0
statistic RandomGeometricGraph.rgnv[43] 	arrivalTime:histogram
field count 1
field mean 213.957
field stddev nan
field sum 213.957
field sqrsum 45777.597849
field min 213.957
field max 213.957
attr interpolationmode  none
attr source  arrivalTime
attr title  "arrival time, histogram"
bin	-INF	0
bin	213.457	0
bin	213.49033333333	0
bin	213.52366666667	0
bin	213.557	0
bin	213.59033333333	0
bin	213.62366666667	0
bin	213.657	0
bin	213.69033333333	0
bin	213.72366666667	0
bin	213.757	0
bin	213.79033333333	0
bin	213.82366666667	0
bin	213.857	0
bin	213.89033333333	0
bin	213.92366666667	0
bin	213.957	1
bin	213.99033333333	0
bin	214.02366666667	0
bin	214.057	0
bin	214.09033333333	0
bin	214.12366666667	0
bin	214.157	0
bin	214.19033333333	0
bin	214.22366666667	0
bin	214.257	0
bin	214.29033333333	0
bin	214.32366666667	0
bin	214.357	0
bin	214.39033333333	0
bin	214.42366666667	0
bin	214.457	0
statistic RandomGeometricGraph.rgnv[43] 	arrivalPerc:histogram
field count 1
field mean 1
field stddev nan
field sum 1
field sqrsum 1
field min 1
field max 1
attr interpolationmode  none
attr source  count(arrival)
attr title  "arrival perc, histogram"
bin	-INF	0
bin	0	0
bin	1	1
bin	2	0
statistic RandomGeometricGraph.rgnv[44] 	arrivalTime:histogram
field count 0
field mean nan
field stddev nan
field sum 0
field sqrsum 0
field min nan
field max nan
attr interpolationmode  none
attr source  arrivalTime
attr title  "arrival time, histogram"
bin	-INF	0
bin	-0.5	0
bin	-0.46666666666667	0
bin	-0.43333333333333	0
bin	-0.4	0
bin	-0.36666666666667	0
bin	-0.33333333333333	0
bin	-0.3	0
bin	-0.26666666666667	0
bin	-0.23333333333333	0
bin	-0.2	0
bin	-0.16666666666667	0
bin	-0.13333333333333	0
bin	-0.1	0
bin	-0.066666666666667	0
bin	-0.033333333333333	0
bin	0	0
bin	0.033333333333333	0
bin	0.066666666666667	0
bin	0.1	0
bin	0.13333333333333	0
bin	0.16666666666667	0
bin	0.2	0
bin	0.23333333333333	0
bin	0.26666666666667	0
bin	0.3	0
bin	0.33333333333333	0
bin	0.36666666666667	0
bin	0.4	0
bin	0.43333333333333	0
bin	0.46666666666667	0
bin	0.5	0
statistic RandomGeometricGraph.rgnv[44] 	arrivalPerc:histogram
field count 0
field mean nan
field stddev nan
field sum 0
field sqrsum 0
field min nan
field max nan
attr interpolationmode  none
attr source  count(arrival)
attr title  "arrival perc, histogram"
bin	-INF	0
bin	-0.5	0
bin	-0.46666666666667	0
bin	-0.43333333333333	0
bin	-0.4	0
bin	-0.36666666666667	0
bin	-0.33333333333333	0
bin	-0.3	0
bin	-0.26666666666667	0
bin	-0.23333333333333	0
bin	-0.2	0
bin	-0.16666666666667	0
bin	-0.13333333333333	0
bin	-0.1	0
bin	-0.066666666666667	0
bin	-0.033333333333333	0
bin	0	0
bin	0.033333333333333	0
bin	0.066666666666667	0
bin	0.1	0
bin	0.13333333333333	0
bin	0.16666666666667	0
bin	0.2	0
bin	0.23333333333333	0
bin	0.26666666666667	0
bin	0.3	0
bin	0.33333333333333	0
bin	0.36666666666667	0
bin	0.4	0
bin	0.43333333333333	0
bin	0.46666666666667	0
bin	0.5	0
statistic RandomGeometricGraph.rgnv[45] 	arrivalTime:histogram
field count 1
field mean 395.201
field stddev nan
field sum 395.201
field sqrsum 156183.830401
field min 395.201
field max 395.201
attr interpolationmode  none
attr source  arrivalTime
attr title  "arrival time, histogram"
bin	-INF	0
bin	394.701	0
bin	394.73433333333	0
bin	394.76766666667	0
bin	394.801	0
bin	394.83433333333	0
bin	394.86766666667	0
bin	394.901	0
bin	394.93433333333	0
bin	394.96766666667	0
bin	395.001	0
bin	395.03433333333	0
bin	395.06766666667	0
bin	395.101	0
bin	395.13433333333	0
bin	395.16766666667	0
bin	395.201	1
bin	395.23433333333	0
bin	395.26766666667	0
bin	395.301	0
bin	395.33433333333	0
bin	395.36766666667	0
bin	395.401	0
bin	395.43433333333	0
bin	395.46766666667	0
bin	395.501	0
bin	395.53433333333	0
bin	395.56766666667	0
bin	395.601	0
bin	395.63433333333	0
bin	395.66766666667	0
bin	395.701	0
statistic RandomGeometricGraph.rgnv[45] 	arrivalPerc:histogram
field count 1
field mean 1
field stddev nan
field sum 1
field sqrsum 1
field min 1
field max 1
attr interpolationmode  none
attr source  count(arrival)
attr title  "arrival perc, histogram"
bin	-INF	0
bin	0	0
bin	1	1
bin	2	0
statistic RandomGeometricGraph.rgnv[46] 	arrivalTime:histogram
field count 1
field mean 140.571
field stddev nan
field sum 140.571
field sqrsum 19760.206041
field min 140.571
field max 140.571
attr interpolationmode  none
attr source  arrivalTime
attr title  "arrival time, histogram"
bin	-INF	0
bin	140.071	0
bin	140.10433333333	0
bin	140.13766666667	0
bin	140.171	0
bin	140.20433333333	0
bin	140.23766666667	0
bin	140.271	0
bin	140.30433333333	0
bin	140.33766666667	0
bin	140.371	0
bin	140.40433333333	0
bin	140.43766666667	0
bin	140.471	0
bin	140.50433333333	0
bin	140.53766666667	0
bin	140.571	1
bin	140.60433333333	0
bin	140.63766666667	0
bin	140.671	0
bin	140.70433333333	0
bin	140.73766666667	0
bin	140.771	0
bin	140.80433333333	0
bin	140.83766666667	0
bin	140.871	0
bin	140.90433333333	0
bin	140.93766666667	0
bin	140.971	0
bin	141.00433333333	0
bin	141.03766666667	0
bin	141.071	0
statistic RandomGeometricGraph.rgnv[46] 	arrivalPerc:histogram
field count 1
field mean 1
field stddev nan
field sum 1
field sqrsum 1
field min 1
field max 1
attr interpolationmode  none
attr source  count(arrival)
attr title  "arrival perc, histogram"
bin	-INF	0
bin	0	0
bin	1	1
bin	2	0
statistic RandomGeometricGraph.rgnv[47] 	arrivalTime:histogram
field count 1
field mean 336.277
field stddev nan
field sum 336.277
field sqrsum 113082.220729
field min 336.277
field max 336.277
attr interpolationmode  none
attr source  arrivalTime
attr title  "arrival time, histogram"
bin	-INF	0
bin	335.777	0
bin	335.81033333333	0
bin	335.84366666667	0
bin	335.877	0
bin	335.91033333333	0
bin	335.94366666667	0
bin	335.977	0
bin	336.01033333333	0
bin	336.04366666667	0
bin	336.077	0
bin	336.11033333333	0
bin	336.14366666667	0
bin	336.177	0
bin	336.21033333333	0
bin	336.24366666667	0
bin	336.277	1
bin	336.31033333333	0
bin	336.34366666667	0
bin	336.377	0
bin	336.41033333333	0
bin	336.44366666667	0
bin	336.477	0
bin	336.51033333333	0
bin	336.54366666667	0
bin	336.577	0
bin	336.61033333333	0
bin	336.64366666667	0
bin	336.677	0
bin	336.71033333333	0
bin	336.74366666667	0
bin	336.777	0
statistic RandomGeometricGraph.rgnv[47] 	arrivalPerc:histogram
field count 1
field mean 1
field stddev nan
field sum 1
field sqrsum 1
field min 1
field max 1
attr interpolationmode  none
attr source  count(arrival)
attr title  "arrival perc, histogram"
bin	-INF	0
bin	0	0
bin	1	1
bin	2	0
statistic RandomGeometricGraph.rgnv[48] 	arrivalTime:histogram
field count 1
field mean 356.307
field stddev nan
field sum 356.307
field sqrsum 126954.678249
field min 356.307
field max 356.307
attr interpolationmode  none
attr source  arrivalTime
attr title  "arrival time, histogram"
bin	-INF	0
bin	355.807	0
bin	355.84033333333	0
bin	355.87366666667	0
bin	355.907	0
bin	355.94033333333	0
bin	355.97366666667	0
bin	356.007	0
bin	356.04033333333	0
bin	356.07366666667	0
bin	356.107	0
bin	356.14033333333	0
bin	356.17366666667	0
bin	356.207	0
bin	356.24033333333	0
bin	356.27366666667	0
bin	356.307	1
bin	356.34033333333	0
bin	356.37366666667	0
bin	356.407	0
bin	356.44033333333	0
bin	356.47366666667	0
bin	356.507	0
bin	356.54033333333	0
bin	356.57366666667	0
bin	356.607	0
bin	356.64033333333	0
bin	356.67366666667	0
bin	356.707	0
bin	356.74033333333	0
bin	356.77366666667	0
bin	356.807	0
statistic RandomGeometricGraph.rgnv[48] 	arrivalPerc:histogram
field count 1
field mean 1
field stddev nan
field sum 1
field sqrsum 1
field min 1
field max 1
attr interpolationmode  none
attr source  count(arrival)
attr title  "arrival perc, histogram"
bin	-INF	0
bin	0	0
bin	1	1
bin	2	0
statistic RandomGeometricGraph.rgnv[49] 	arrivalTime:histogram
field count 1
field mean 424.673
field stddev nan
field sum 424.673
field sqrsum 180347.156929
field min 424.673
field max 424.673
attr interpolationmode  none
attr source  arrivalTime
attr title  "arrival time, histogram"
bin	-INF	0
bin	424.173	0
bin	424.20633333333	0
bin	424.23966666667	0
bin	424.273	0
bin	424.30633333333	0
bin	424.33966666667	0
bin	424.373	0
bin	424.40633333333	0
bin	424.43966666667	0
bin	424.473	0
bin	424.50633333333	0
bin	424.53966666667	0
bin	424.573	0
bin	424.60633333333	0
bin	424.63966666667	0
bin	424.673	1
bin	424.70633333333	0
bin	424.73966666667	0
bin	424.773	0
bin	424.80633333333	0
bin	424.83966666667	0
bin	424.873	0
bin	424.90633333333	0
bin	424.93966666667	0
bin	424.973	0
bin	425.00633333333	0
bin	425.03966666667	0
bin	425.073	0
bin	425.10633333333	0
bin	425.13966666667	0
bin	425.173	0
statistic RandomGeometricGraph.rgnv[49] 	arrivalPerc:histogram
field count 1
field mean 1
field stddev nan
field sum 1
field sqrsum 1
field min 1
field max 1
attr interpolationmode  none
attr source  count(arrival)
attr title  "arrival perc, histogram"
bin	-INF	0
bin	0	0
bin	1	1
bin	2	0
statistic RandomGeometricGraph.rgnv[50] 	arrivalTime:histogram
field count 1
field mean 250.67
field stddev nan
field sum 250.67
field sqrsum 62835.4489
field min 250.67
field max 250.67
attr interpolationmode  none
attr source  arrivalTime
attr title  "arrival time, histogram"
bin	-INF	0
bin	250.17	0
bin	250.20333333333	0
bin	250.23666666667	0
bin	250.27	0
bin	250.30333333333	0
bin	250.33666666667	0
bin	250.37	0
bin	250.40333333333	0
bin	250.43666666667	0
bin	250.47	0
bin	250.50333333333	0
bin	250.53666666667	0
bin	250.57	0
bin	250.60333333333	0
bin	250.63666666667	0
bin	250.67	1
bin	250.70333333333	0
bin	250.73666666667	0
bin	250.77	0
bin	250.80333333333	0
bin	250.83666666667	0
bin	250.87	0
bin	250.90333333333	0
bin	250.93666666667	0
bin	250.97	0
bin	251.00333333333	0
bin	251.03666666667	0
bin	251.07	0
bin	251.10333333333	0
bin	251.13666666667	0
bin	251.17	0
statistic RandomGeometricGraph.rgnv[50] 	arrivalPerc:histogram
field count 1
field mean 1
field stddev nan
field sum 1
field sqrsum 1
field min 1
field max 1
attr interpolationmode  none
attr source  count(arrival)
attr title  "arrival perc, histogram"
bin	-INF	0
bin	0	0
bin	1	1
bin	2	0
statistic RandomGeometricGraph.rgnv[51] 	arrivalTime:histogram
field count 1
field mean 250.69
field stddev nan
field sum 250.69
field sqrsum 62845.4761
field min 250.69
field max 250.69
attr interpolationmode  none
attr source  arrivalTime
attr title  "arrival time, histogram"
bin	-INF	0
bin	250.19	0
bin	250.22333333333	0
bin	250.25666666667	0
bin	250.29	0
bin	250.32333333333	0
bin	250.35666666667	0
bin	250.39	0
bin	250.42333333333	0
bin	250.45666666667	0
bin	250.49	0
bin	250.52333333333	0
bin	250.55666666667	0
bin	250.59	0
bin	250.62333333333	0
bin	250.65666666667	0
bin	250.69	1
bin	250.72333333333	0
bin	250.75666666667	0
bin	250.79	0
bin	250.82333333333	0
bin	250.85666666667	0
bin	250.89	0
bin	250.92333333333	0
bin	250.95666666667	0
bin	250.99	0
bin	251.02333333333	0
bin	251.05666666667	0
bin	251.09	0
bin	251.12333333333	0
bin	251.15666666667	0
bin	251.19	0
statistic RandomGeometricGraph.rgnv[51] 	arrivalPerc:histogram
field count 1
field mean 1
field stddev nan
field sum 1
field sqrsum 1
field min 1
field max 1
attr interpolationmode  none
attr source  count(arrival)
attr title  "arrival perc, histogram"
bin	-INF	0
bin	0	0
bin	1	1
bin	2	0
statistic RandomGeometricGraph.rgnv[52] 	arrivalTime:histogram
field count 1
field mean 140.561
field stddev nan
field sum 140.561
field sqrsum 19757.394721
field min 140.561
field max 140.561
attr interpolationmode  none
attr source  arrivalTime
attr title  "arrival time, histogram"
bin	-INF	0
bin	140.061	0
bin	140.09433333333	0
bin	140.12766666667	0
bin	140.161	0
bin	140.19433333333	0
bin	140.22766666667	0
bin	140.261	0
bin	140.29433333333	0
bin	140.32766666667	0
bin	140.361	0
bin	140.39433333333	0
bin	140.42766666667	0
bin	140.461	0
bin	140.49433333333	0
bin	140.52766666667	0
bin	140.561	1
bin	140.59433333333	0
bin	140.62766666667	0
bin	140.661	0
bin	140.69433333333	0
bin	140.72766666667	0
bin	140.761	0
bin	140.79433333333	0
bin	140.82766666667	0
bin	140.861	0
bin	140.89433333333	0
bin	140.92766666667	0
bin	140.961	0
bin	140.99433333333	0
bin	141.02766666667	0
bin	141.061	0
statistic RandomGeometricGraph.rgnv[52] 	arrivalPerc:histogram
field count 1
field mean 1
field stddev nan
field sum 1
field sqrsum 1
field min 1
field max 1
attr interpolationmode  none
attr source  count(arrival)
attr title  "arrival perc, histogram"
bin	-INF	0
bin	0	0
bin	1	1
bin	2	0
statistic RandomGeometricGraph.rgnv[53] 	arrivalTime:histogram
field count 1
field mean 360.739
field stddev nan
field sum 360.739
field sqrsum 130132.626121
field min 360.739
field max 360.739
attr interpolationmode  none
attr source  arrivalTime
attr title  "arrival time, histogram"
bin	-INF	0
bin	360.239	0
bin	360.27233333333	0
bin	360.30566666667	0
bin	360.339	0
bin	360.37233333333	0
bin	360.40566666667	0
bin	360.439	0
bin	360.47233333333	0
bin	360.50566666667	0
bin	360.539	0
bin	360.57233333333	0
bin	360.60566666667	0
bin	360.639	0
bin	360.67233333333	0
bin	360.70566666667	0
bin	360.739	1
bin	360.77233333333	0
bin	360.80566666667	0
bin	360.839	0
bin	360.87233333333	0
bin	360.90566666667	0
bin	360.939	0
bin	360.97233333333	0
bin	361.00566666667	0
bin	361.039	0
bin	361.07233333333	0
bin	361.10566666667	0
bin	361.139	0
bin	361.17233333333	0
bin	361.20566666667	0
bin	361.239	0
statistic RandomGeometricGraph.rgnv[53] 	arrivalPerc:histogram
field count 1
field mean 1
field stddev nan
field sum 1
field sqrsum 1
field min 1
field max 1
attr interpolationmode  none
attr source  count(arrival)
attr title  "arrival perc, histogram"
bin	-INF	0
bin	0	0
bin	1	1
bin	2	0
statistic RandomGeometricGraph.rgnv[54] 	arrivalTime:histogram
field count 1
field mean 346.277
field stddev nan
field sum 346.277
field sqrsum 119907.760729
field min 346.277
field max 346.277
attr interpolationmode  none
attr source  arrivalTime
attr title  "arrival time, histogram"
bin	-INF	0
bin	345.777	0
bin	345.81033333333	0
bin	345.84366666667	0
bin	345.877	0
bin	345.91033333333	0
bin	345.94366666667	0
bin	345.977	0
bin	346.01033333333	0
bin	346.04366666667	0
bin	346.077	0
bin	346.11033333333	0
bin	346.14366666667	0
bin	346.177	0
bin	346.21033333333	0
bin	346.24366666667	0
bin	346.277	1
bin	346.31033333333	0
bin	346.34366666667	0
bin	346.377	0
bin	346.41033333333	0
bin	346.44366666667	0
bin	346.477	0
bin	346.51033333333	0
bin	346.54366666667	0
bin	346.577	0
bin	346.61033333333	0
bin	346.64366666667	0
bin	346.677	0
bin	346.71033333333	0
bin	346.74366666667	0
bin	346.777	0
statistic RandomGeometricGraph.rgnv[54] 	arrivalPerc:histogram
field count 1
field mean 1
field stddev nan
field sum 1
field sqrsum 1
field min 1
field max 1
attr interpolationmode  none
attr source  count(arrival)
attr title  "arrival perc, histogram"
bin	-INF	0
bin	0	0
bin	1	1
bin	2	0
statistic RandomGeometricGraph.rgnv[55] 	arrivalTime:histogram
field count 1
field mean 103.868
field stddev nan
field sum 103.868
field sqrsum 10788.561424
field min 103.868
field max 103.868
attr interpolationmode  none
attr source  arrivalTime
attr title  "arrival time, histogram"
bin	-INF	0
bin	103.368	0
bin	103.40133333333	0
bin	103.43466666667	0
bin	103.468	0
bin	103.50133333333	0
bin	103.53466666667	0
bin	103.568	0
bin	103.60133333333	0
bin	103.63466666667	0
bin	103.668	0
bin	103.70133333333	0
bin	103.73466666667	0
bin	103.768	0
bin	103.80133333333	0
bin	103.83466666667	0
bin	103.868	1
bin	103.90133333333	0
bin	103.93466666667	0
bin	103.968	0
bin	104.00133333333	0
bin	104.03466666667	0
bin	104.068	0
bin	104.10133333333	0
bin	104.13466666667	0
bin	104.168	0
bin	104.20133333333	0
bin	104.23466666667	0
bin	104.268	0
bin	104.30133333333	0
bin	104.33466666667	0
bin	104.368	0
statistic RandomGeometricGraph.rgnv[55] 	arrivalPerc:histogram
field count 1
field mean 1
field stddev nan
field sum 1
field sqrsum 1
field min 1
field max 1
attr interpolationmode  none
attr source  count(arrival)
attr title  "arrival perc, histogram"
bin	-INF	0
bin	0	0
bin	1	1
bin	2	0
statistic RandomGeometricGraph.rgnv[56] 	arrivalTime:histogram
field count 1
field mean 255.65
field stddev nan
field sum 255.65
field sqrsum 65356.9225
field min 255.65
field max 255.65
attr interpolationmode  none
attr source  arrivalTime
attr title  "arrival time, histogram"
bin	-INF	0
bin	255.15	0
bin	255.18333333333	0
bin	255.21666666667	0
bin	255.25	0
bin	255.28333333333	0
bin	255.31666666667	0
bin	255.35	0
bin	255.38333333333	0
bin	255.41666666667	0
bin	255.45	0
bin	255.48333333333	0
bin	255.51666666667	0
bin	255.55	0
bin	255.58333333333	0
bin	255.61666666667	0
bin	255.65	1
bin	255.68333333333	0
bin	255.71666666667	0
bin	255.75	0
bin	255.78333333333	0
bin	255.81666666667	0
bin	255.85	0
bin	255.88333333333	0
bin	255.91666666667	0
bin	255.95	0
bin	255.98333333333	0
bin	256.01666666667	0
bin	256.05	0
bin	256.08333333333	0
bin	256.11666666667	0
bin	256.15	0
statistic RandomGeometricGraph.rgnv[56] 	arrivalPerc:histogram
field count 1
field mean 1
field stddev nan
field sum 1
field sqrsum 1
field min 1
field max 1
attr interpolationmode  none
attr source  count(arrival)
attr title  "arrival perc, histogram"
bin	-INF	0
bin	0	0
bin	1	1
bin	2	0
statistic RandomGeometricGraph.rgnv[57] 	arrivalTime:histogram
field count 1
field mean 400.201
field stddev nan
field sum 400.201
field sqrsum 160160.840401
field min 400.201
field max 400.201
attr interpolationmode  none
attr source  arrivalTime
attr title  "arrival time, histogram"
bin	-INF	0
bin	399.701	0
bin	399.73433333333	0
bin	399.76766666667	0
bin	399.801	0
bin	399.83433333333	0
bin	399.86766666667	0
bin	399.901	0
bin	399.93433333333	0
bin	399.96766666667	0
bin	400.001	0
bin	400.03433333333	0
bin	400.06766666667	0
bin	400.101	0
bin	400.13433333333	0
bin	400.16766666667	0
bin	400.201	1
bin	400.23433333333	0
bin	400.26766666667	0
bin	400.301	0
bin	400.33433333333	0
bin	400.36766666667	0
bin	400.401	0
bin	400.43433333333	0
bin	400.46766666667	0
bin	400.501	0
bin	400.53433333333	0
bin	400.56766666667	0
bin	400.601	0
bin	400.63433333333	0
bin	400.66766666667	0
bin	400.701	0
statistic RandomGeometricGraph.rgnv[57] 	arrivalPerc:histogram
field count 1
field mean 1
field stddev nan
field sum 1
field sqrsum 1
field min 1
field max 1
attr interpolationmode  none
attr source  count(arrival)
attr title  "arrival perc, histogram"
bin	-INF	0
bin	0	0
bin	1	1
bin	2	0
statistic RandomGeometricGraph.rgnv[58] 	arrivalTime:histogram
field count 1
field mean 334.046
field stddev nan
field sum 334.046
field sqrsum 111586.730116
field min 334.046
field max 334.046
attr interpolationmode  none
attr source  arrivalTime
attr title  "arrival time, histogram"
bin	-INF	0
bin	333.546	0
bin	333.57933333333	0
bin	333.61266666667	0
bin	333.646	0
bin	333.67933333333	0
bin	333.71266666667	0
bin	333.746	0
bin	333.77933333333	0
bin	333.81266666667	0
bin	333.846	0
bin	333.87933333333	0
bin	333.91266666667	0
bin	333.946	0
bin	333.97933333333	0
bin	334.01266666667	0
bin	334.046	1
bin	334.07933333333	0
bin	334.11266666667	0
bin	334.146	0
bin	334.17933333333	0
bin	334.21266666667	0
bin	334.246	0
bin	334.27933333333	0
bin	334.31266666667	0
bin	334.346	0
bin	334.37933333333	0
bin	334.41266666667	0
bin	334.446	0
bin	334.47933333333	0
bin	334.51266666667	0
bin	334.546	0
statistic RandomGeometricGraph.rgnv[58] 	arrivalPerc:histogram
field count 1
field mean 1
field stddev nan
field sum 1
field sqrsum 1
field min 1
field max 1
attr interpolationmode  none
attr source  count(arrival)
attr title  "arrival perc, histogram"
bin	-INF	0
bin	0	0
bin	1	1
bin	2	0
statistic RandomGeometricGraph.rgnv[59] 	arrivalTime:histogram
field count 1
field mean 375.739
field stddev nan
field sum 375.739
field sqrsum 141179.796121
field min 375.739
field max 375.739
attr interpolationmode  none
attr source  arrivalTime
attr title  "arrival time, histogram"
bin	-INF	0
bin	375.239	0
bin	375.27233333333	0
bin	375.30566666667	0
bin	375.339	0
bin	375.37233333333	0
bin	375.40566666667	0
bin	375.439	0
bin	375.47233333333	0
bin	375.50566666667	0
bin	375.539	0
bin	375.57233333333	0
bin	375.60566666667	0
bin	375.639	0
bin	375.67233333333	0
bin	375.70566666667	0
bin	375.739	1
bin	375.77233333333	0
bin	375.80566666667	0
bin	375.839	0
bin	375.87233333333	0
bin	375.90566666667	0
bin	375.939	0
bin	375.97233333333	0
bin	376.00566666667	0
bin	376.039	0
bin	376.07233333333	0
bin	376.10566666667	0
bin	376.139	0
bin	376.17233333333	0
bin	376.20566666667	0
bin	376.239	0
statistic RandomGeometricGraph.rgnv[59] 	arrivalPerc:histogram
field count 1
field mean 1
field stddev nan
field sum 1
field sqrsum 1
field min 1
field max 1
attr interpolationmode  none
attr source  count(arrival)
attr title  "arrival perc, histogram"
bin	-INF	0
bin	0	0
bin	1	1
bin	2	0
statistic RandomGeometricGraph.rgnv[60] 	arrivalTime:histogram
field count 0
field mean nan
field stddev nan
field sum 0
field sqrsum 0
field min nan
field max nan
attr interpolationmode  none
attr source  arrivalTime
attr title  "arrival time, histogram"
bin	-INF	0
bin	-0.5	0
bin	-0.46666666666667	0
bin	-0.43333333333333	0
bin	-0.4	0
bin	-0.36666666666667	0
bin	-0.33333333333333	0
bin	-0.3	0
bin	-0.26666666666667	0
bin	-0.23333333333333	0
bin	-0.2	0
bin	-0.16666666666667	0
bin	-0.13333333333333	0
bin	-0.1	0
bin	-0.066666666666667	0
bin	-0.033333333333333	0
bin	0	0
bin	0.033333333333333	0
bin	0.066666666666667	0
bin	0.1	0
bin	0.13333333333333	0
bin	0.16666666666667	0
bin	0.2	0
bin	0.23333333333333	0
bin	0.26666666666667	0
bin	0.3	0
bin	0.33333333333333	0
bin	0.36666666666667	0
bin	0.4	0
bin	0.43333333333333	0
bin	0.46666666666667	0
bin	0.5	0
statistic RandomGeometricGraph.rgnv[60] 	arrivalPerc:histogram
field count 0
field mean nan
field stddev nan
field sum 0
field sqrsum 0
field min nan
field max nan
attr interpolationmode  none
attr source  count(arrival)
attr title  "arrival perc, histogram"
bin	-INF	0
bin	-0.5	0
bin	-0.46666666666667	0
bin	-0.43333333333333	0
bin	-0.4	0
bin	-0.36666666666667	0
bin	-0.33333333333333	0
bin	-0.3	0
bin	-0.26666666666667	0
bin	-0.23333333333333	0
bin	-0.2	0
bin	-0.16666666666667	0
bin	-0.13333333333333	0
bin	-0.1	0
bin	-0.066666666666667	0
bin	-0.033333333333333	0
bin	0	0
bin	0.033333333333333	0
bin	0.066666666666667	0
bin	0.1	0
bin	0.13333333333333	0
bin	0.16666666666667	0
bin	0.2	0
bin	0.23333333333333	0
bin	0.26666666666667	0
bin	0.3	0
bin	0.33333333333333	0
bin	0.36666666666667	0
bin	0.4	0
bin	0.43333333333333	0
bin	0.46666666666667	0
bin	0.5	0
statistic RandomGeometricGraph.rgnv[61] 	arrivalTime:histogram
field count 1
field mean 400.211
field stddev nan
field sum 400.211
field sqrsum 160168.844521
field min 400.211
field max 400.211
attr interpolationmode  none
attr source  arrivalTime
attr title  "arrival time, histogram"
bin	-INF	0
bin	399.711	0
bin	399.74433333333	0
bin	399.77766666667	0
bin	399.811	0
bin	399.84433333333	0
bin	399.87766666667	0
bin	399.911	0
bin	399.94433333333	0
bin	399.97766666667	0
bin	400.011	0
bin	400.04433333333	0
bin	400.07766666667	0
bin	400.111	0
bin	400.14433333333	0
bin	400.17766666667	0
bin	400.211	1
bin	400.24433333333	0
bin	400.27766666667	0
bin	400.311	0
bin	400.34433333333	0
bin	400.37766666667	0
bin	400.411	0
bin	400.44433333333	0
bin	400.47766666667	0
bin	400.511	0
bin	400.54433333333	0
bin	400.57766666667	0
bin	400.611	0
bin	400.64433333333	0
bin	400.67766666667	0
bin	400.711	0
statistic RandomGeometricGraph.rgnv[61] 	arrivalPerc:histogram
field count 1
field mean 1
field stddev nan
field sum 1
field sqrsum 1
field min 1
field max 1
attr interpolationmode  none
attr source  count(arrival)
attr title  "arrival perc, histogram"
bin	-INF	0
bin	0	0
bin	1	1
bin	2	0
statistic RandomGeometricGraph.rgnv[62] 	arrivalTime:histogram
field count 1
field mean 367.97
field stddev nan
field sum 367.97
field sqrsum 135401.9209
field min 367.97
field max 367.97
attr interpolationmode  none
attr source  arrivalTime
attr title  "arrival time, histogram"
bin	-INF	0
bin	367.47	0
bin	367.50333333333	0
bin	367.53666666667	0
bin	367.57	0
bin	367.60333333333	0
bin	367.63666666667	0
bin	367.67	0
bin	367.70333333333	0
bin	367.73666666667	0
bin	367.77	0
bin	367.80333333333	0
bin	367.83666666667	0
bin	367.87	0
bin	367.90333333333	0
bin	367.93666666667	0
bin	367.97	1
bin	368.00333333333	0
bin	368.03666666667	0
bin	368.07	0
bin	368.10333333333	0
bin	368.13666666667	0
bin	368.17	0
bin	368.20333333333	0
bin	368.23666666667	0
bin	368.27	0
bin	368.30333333333	0
bin	368.33666666667	0
bin	368.37	0
[...]
attr title  "arrival perc, histogram"
bin	-INF	0
bin	0	0
bin	1	1
bin	2	0
statistic RandomGeometricGraph.rgnv[484] 	arrivalTime:histogram
field count 1
field mean 363.528
field stddev nan
field sum 363.528
field sqrsum 132152.606784
field min 363.528
field max 363.528
attr interpolationmode  none
attr source  arrivalTime
attr title  "arrival time, histogram"
bin	-INF	0
bin	363.028	0
bin	363.06133333333	0
bin	363.09466666667	0
bin	363.128	0
bin	363.16133333333	0
bin	363.19466666667	0
bin	363.228	0
bin	363.26133333333	0
bin	363.29466666667	0
bin	363.328	0
bin	363.36133333333	0
bin	363.39466666667	0
bin	363.428	0
bin	363.46133333333	0
bin	363.49466666667	0
bin	363.528	1
bin	363.56133333333	0
bin	363.59466666667	0
bin	363.628	0
bin	363.66133333333	0
bin	363.69466666667	0
bin	363.728	0
bin	363.76133333333	0
bin	363.79466666667	0
bin	363.828	0
bin	363.86133333333	0
bin	363.89466666667	0
bin	363.928	0
bin	363.96133333333	0
bin	363.99466666667	0
bin	364.028	0
statistic RandomGeometricGraph.rgnv[484] 	arrivalPerc:histogram
field count 1
field mean 1
field stddev nan
field sum 1
field sqrsum 1
field min 1
field max 1
attr interpolationmode  none
attr source  count(arrival)
attr title  "arrival perc, histogram"
bin	-INF	0
bin	0	0
bin	1	1
bin	2	0
statistic RandomGeometricGraph.rgnv[485] 	arrivalTime:histogram
field count 1
field mean 343.498
field stddev nan
field sum 343.498
field sqrsum 117990.876004
field min 343.498
field max 343.498
attr interpolationmode  none
attr source  arrivalTime
attr title  "arrival time, histogram"
bin	-INF	0
bin	342.998	0
bin	343.03133333333	0
bin	343.06466666667	0
bin	343.098	0
bin	343.13133333333	0
bin	343.16466666667	0
bin	343.198	0
bin	343.23133333333	0
bin	343.26466666667	0
bin	343.298	0
bin	343.33133333333	0
bin	343.36466666667	0
bin	343.398	0
bin	343.43133333333	0
bin	343.46466666667	0
bin	343.498	1
bin	343.53133333333	0
bin	343.56466666667	0
bin	343.598	0
bin	343.63133333333	0
bin	343.66466666667	0
bin	343.698	0
bin	343.73133333333	0
bin	343.76466666667	0
bin	343.798	0
bin	343.83133333333	0
bin	343.86466666667	0
bin	343.898	0
bin	343.93133333333	0
bin	343.96466666667	0
bin	343.998	0
statistic RandomGeometricGraph.rgnv[485] 	arrivalPerc:histogram
field count 1
field mean 1
field stddev nan
field sum 1
field sqrsum 1
field min 1
field max 1
attr interpolationmode  none
attr source  count(arrival)
attr title  "arrival perc, histogram"
bin	-INF	0
bin	0	0
bin	1	1
bin	2	0
statistic RandomGeometricGraph.rgnv[486] 	arrivalTime:histogram
field count 0
field mean nan
field stddev nan
field sum 0
field sqrsum 0
field min nan
field max nan
attr interpolationmode  none
attr source  arrivalTime
attr title  "arrival time, histogram"
bin	-INF	0
bin	-0.5	0
bin	-0.46666666666667	0
bin	-0.43333333333333	0
bin	-0.4	0
bin	-0.36666666666667	0
bin	-0.33333333333333	0
bin	-0.3	0
bin	-0.26666666666667	0
bin	-0.23333333333333	0
bin	-0.2	0
bin	-0.16666666666667	0
bin	-0.13333333333333	0
bin	-0.1	0
bin	-0.066666666666667	0
bin	-0.033333333333333	0
bin	0	0
bin	0.033333333333333	0
bin	0.066666666666667	0
bin	0.1	0
bin	0.13333333333333	0
bin	0.16666666666667	0
bin	0.2	0
bin	0.23333333333333	0
bin	0.26666666666667	0
bin	0.3	0
bin	0.33333333333333	0
bin	0.36666666666667	0
bin	0.4	0
bin	0.43333333333333	0
bin	0.46666666666667	0
bin	0.5	0
statistic RandomGeometricGraph.rgnv[486] 	arrivalPerc:histogram
field count 0
field mean nan
field stddev nan
field sum 0
field sqrsum 0
field min nan
field max nan
attr interpolationmode  none
attr source  count(arrival)
attr title  "arrival perc, histogram"
bin	-INF	0
bin	-0.5	0
bin	-0.46666666666667	0
bin	-0.43333333333333	0
bin	-0.4	0
bin	-0.36666666666667	0
bin	-0.33333333333333	0
bin	-0.3	0
bin	-0.26666666666667	0
bin	-0.23333333333333	0
bin	-0.2	0
bin	-0.16666666666667	0
bin	-0.13333333333333	0
bin	-0.1	0
bin	-0.066666666666667	0
bin	-0.033333333333333	0
bin	0	0
bin	0.033333333333333	0
bin	0.066666666666667	0
bin	0.1	0
bin	0.13333333333333	0
bin	0.16666666666667	0
bin	0.2	0
bin	0.23333333333333	0
bin	0.26666666666667	0
bin	0.3	0
bin	0.33333333333333	0
bin	0.36666666666667	0
bin	0.4	0
bin	0.43333333333333	0
bin	0.46666666666667	0
bin	0.5	0
statistic RandomGeometricGraph.rgnv[487] 	arrivalTime:histogram
field count 0
field mean nan
field stddev nan
field sum 0
field sqrsum 0
field min nan
field max nan
attr interpolationmode  none
attr source  arrivalTime
attr title  "arrival time, histogram"
bin	-INF	0
bin	-0.5	0
bin	-0.46666666666667	0
bin	-0.43333333333333	0
bin	-0.4	0
bin	-0.36666666666667	0
bin	-0.33333333333333	0
bin	-0.3	0
bin	-0.26666666666667	0
bin	-0.23333333333333	0
bin	-0.2	0
bin	-0.16666666666667	0
bin	-0.13333333333333	0
bin	-0.1	0
bin	-0.066666666666667	0
bin	-0.033333333333333	0
bin	0	0
bin	0.033333333333333	0
bin	0.066666666666667	0
bin	0.1	0
bin	0.13333333333333	0
bin	0.16666666666667	0
bin	0.2	0
bin	0.23333333333333	0
bin	0.26666666666667	0
bin	0.3	0
bin	0.33333333333333	0
bin	0.36666666666667	0
bin	0.4	0
bin	0.43333333333333	0
bin	0.46666666666667	0
bin	0.5	0
statistic RandomGeometricGraph.rgnv[487] 	arrivalPerc:histogram
field count 0
field mean nan
field stddev nan
field sum 0
field sqrsum 0
field min nan
field max nan
attr interpolationmode  none
attr source  count(arrival)
attr title  "arrival perc, histogram"
bin	-INF	0
bin	-0.5	0
bin	-0.46666666666667	0
bin	-0.43333333333333	0
bin	-0.4	0
bin	-0.36666666666667	0
bin	-0.33333333333333	0
bin	-0.3	0
bin	-0.26666666666667	0
bin	-0.23333333333333	0
bin	-0.2	0
bin	-0.16666666666667	0
bin	-0.13333333333333	0
bin	-0.1	0
bin	-0.066666666666667	0
bin	-0.033333333333333	0
bin	0	0
bin	0.033333333333333	0
bin	0.066666666666667	0
bin	0.1	0
bin	0.13333333333333	0
bin	0.16666666666667	0
bin	0.2	0
bin	0.23333333333333	0
bin	0.26666666666667	0
bin	0.3	0
bin	0.33333333333333	0
bin	0.36666666666667	0
bin	0.4	0
bin	0.43333333333333	0
bin	0.46666666666667	0
bin	0.5	0
statistic RandomGeometricGraph.rgnv[488] 	arrivalTime:histogram
field count 1
field mean 245.65
field stddev nan
field sum 245.65
field sqrsum 60343.9225
field min 245.65
field max 245.65
attr interpolationmode  none
attr source  arrivalTime
attr title  "arrival time, histogram"
bin	-INF	0
bin	245.15	0
bin	245.18333333333	0
bin	245.21666666667	0
bin	245.25	0
bin	245.28333333333	0
bin	245.31666666667	0
bin	245.35	0
bin	245.38333333333	0
bin	245.41666666667	0
bin	245.45	0
bin	245.48333333333	0
bin	245.51666666667	0
bin	245.55	0
bin	245.58333333333	0
bin	245.61666666667	0
bin	245.65	1
bin	245.68333333333	0
bin	245.71666666667	0
bin	245.75	0
bin	245.78333333333	0
bin	245.81666666667	0
bin	245.85	0
bin	245.88333333333	0
bin	245.91666666667	0
bin	245.95	0
bin	245.98333333333	0
bin	246.01666666667	0
bin	246.05	0
bin	246.08333333333	0
bin	246.11666666667	0
bin	246.15	0
statistic RandomGeometricGraph.rgnv[488] 	arrivalPerc:histogram
field count 1
field mean 1
field stddev nan
field sum 1
field sqrsum 1
field min 1
field max 1
attr interpolationmode  none
attr source  count(arrival)
attr title  "arrival perc, histogram"
bin	-INF	0
bin	0	0
bin	1	1
bin	2	0
statistic RandomGeometricGraph.rgnv[489] 	arrivalTime:histogram
field count 1
field mean 172.254
field stddev nan
field sum 172.254
field sqrsum 29671.440516
field min 172.254
field max 172.254
attr interpolationmode  none
attr source  arrivalTime
attr title  "arrival time, histogram"
bin	-INF	0
bin	171.754	0
bin	171.78733333333	0
bin	171.82066666667	0
bin	171.854	0
bin	171.88733333333	0
bin	171.92066666667	0
bin	171.954	0
bin	171.98733333333	0
bin	172.02066666667	0
bin	172.054	0
bin	172.08733333333	0
bin	172.12066666667	0
bin	172.154	0
bin	172.18733333333	0
bin	172.22066666667	0
bin	172.254	1
bin	172.28733333333	0
bin	172.32066666667	0
bin	172.354	0
bin	172.38733333333	0
bin	172.42066666667	0
bin	172.454	0
bin	172.48733333333	0
bin	172.52066666667	0
bin	172.554	0
bin	172.58733333333	0
bin	172.62066666667	0
bin	172.654	0
bin	172.68733333333	0
bin	172.72066666667	0
bin	172.754	0
statistic RandomGeometricGraph.rgnv[489] 	arrivalPerc:histogram
field count 1
field mean 1
field stddev nan
field sum 1
field sqrsum 1
field min 1
field max 1
attr interpolationmode  none
attr source  count(arrival)
attr title  "arrival perc, histogram"
bin	-INF	0
bin	0	0
bin	1	1
bin	2	0
statistic RandomGeometricGraph.rgnv[490] 	arrivalTime:histogram
field count 1
field mean 275.112
field stddev nan
field sum 275.112
field sqrsum 75686.612544
field min 275.112
field max 275.112
attr interpolationmode  none
attr source  arrivalTime
attr title  "arrival time, histogram"
bin	-INF	0
bin	274.612	0
bin	274.64533333333	0
bin	274.67866666667	0
bin	274.712	0
bin	274.74533333333	0
bin	274.77866666667	0
bin	274.812	0
bin	274.84533333333	0
bin	274.87866666667	0
bin	274.912	0
bin	274.94533333333	0
bin	274.97866666667	0
bin	275.012	0
bin	275.04533333333	0
bin	275.07866666667	0
bin	275.112	1
bin	275.14533333333	0
bin	275.17866666667	0
bin	275.212	0
bin	275.24533333333	0
bin	275.27866666667	0
bin	275.312	0
bin	275.34533333333	0
bin	275.37866666667	0
bin	275.412	0
bin	275.44533333333	0
bin	275.47866666667	0
bin	275.512	0
bin	275.54533333333	0
bin	275.57866666667	0
bin	275.612	0
statistic RandomGeometricGraph.rgnv[490] 	arrivalPerc:histogram
field count 1
field mean 1
field stddev nan
field sum 1
field sqrsum 1
field min 1
field max 1
attr interpolationmode  none
attr source  count(arrival)
attr title  "arrival perc, histogram"
bin	-INF	0
bin	0	0
bin	1	1
bin	2	0
statistic RandomGeometricGraph.rgnv[491] 	arrivalTime:histogram
field count 1
field mean 208.967
field stddev nan
field sum 208.967
field sqrsum 43667.207089
field min 208.967
field max 208.967
attr interpolationmode  none
attr source  arrivalTime
attr title  "arrival time, histogram"
bin	-INF	0
bin	208.467	0
bin	208.50033333333	0
bin	208.53366666667	0
bin	208.567	0
bin	208.60033333333	0
bin	208.63366666667	0
bin	208.667	0
bin	208.70033333333	0
bin	208.73366666667	0
bin	208.767	0
bin	208.80033333333	0
bin	208.83366666667	0
bin	208.867	0
bin	208.90033333333	0
bin	208.93366666667	0
bin	208.967	1
bin	209.00033333333	0
bin	209.03366666667	0
bin	209.067	0
bin	209.10033333333	0
bin	209.13366666667	0
bin	209.167	0
bin	209.20033333333	0
bin	209.23366666667	0
bin	209.267	0
bin	209.30033333333	0
bin	209.33366666667	0
bin	209.367	0
bin	209.40033333333	0
bin	209.43366666667	0
bin	209.467	0
statistic RandomGeometricGraph.rgnv[491] 	arrivalPerc:histogram
field count 1
field mean 1
field stddev nan
field sum 1
field sqrsum 1
field min 1
field max 1
attr interpolationmode  none
attr source  count(arrival)
attr title  "arrival perc, histogram"
bin	-INF	0
bin	0	0
bin	1	1
bin	2	0
statistic RandomGeometricGraph.rgnv[492] 	arrivalTime:histogram
field count 1
field mean 495.848
field stddev nan
field sum 495.848
field sqrsum 245865.239104
field min 495.848
field max 495.848
attr interpolationmode  none
attr source  arrivalTime
attr title  "arrival time, histogram"
bin	-INF	0
bin	495.348	0
bin	495.38133333333	0
bin	495.41466666667	0
bin	495.448	0
bin	495.48133333333	0
bin	495.51466666667	0
bin	495.548	0
bin	495.58133333333	0
bin	495.61466666667	0
bin	495.648	0
bin	495.68133333333	0
bin	495.71466666667	0
bin	495.748	0
bin	495.78133333333	0
bin	495.81466666667	0
bin	495.848	1
bin	495.88133333333	0
bin	495.91466666667	0
bin	495.948	0
bin	495.98133333333	0
bin	496.01466666667	0
bin	496.048	0
bin	496.08133333333	0
bin	496.11466666667	0
bin	496.148	0
bin	496.18133333333	0
bin	496.21466666667	0
bin	496.248	0
bin	496.28133333333	0
bin	496.31466666667	0
bin	496.348	0
statistic RandomGeometricGraph.rgnv[492] 	arrivalPerc:histogram
field count 1
field mean 1
field stddev nan
field sum 1
field sqrsum 1
field min 1
field max 1
attr interpolationmode  none
attr source  count(arrival)
attr title  "arrival perc, histogram"
bin	-INF	0
bin	0	0
bin	1	1
bin	2	0
statistic RandomGeometricGraph.rgnv[493] 	arrivalTime:histogram
field count 1
field mean 478.597
field stddev nan
field sum 478.597
field sqrsum 229055.088409
field min 478.597
field max 478.597
attr interpolationmode  none
attr source  arrivalTime
attr title  "arrival time, histogram"
bin	-INF	0
bin	478.097	0
bin	478.13033333333	0
bin	478.16366666667	0
bin	478.197	0
bin	478.23033333333	0
bin	478.26366666667	0
bin	478.297	0
bin	478.33033333333	0
bin	478.36366666667	0
bin	478.397	0
bin	478.43033333333	0
bin	478.46366666667	0
bin	478.497	0
bin	478.53033333333	0
bin	478.56366666667	0
bin	478.597	1
bin	478.63033333333	0
bin	478.66366666667	0
bin	478.697	0
bin	478.73033333333	0
bin	478.76366666667	0
bin	478.797	0
bin	478.83033333333	0
bin	478.86366666667	0
bin	478.897	0
bin	478.93033333333	0
bin	478.96366666667	0
bin	478.997	0
bin	479.03033333333	0
bin	479.06366666667	0
bin	479.097	0
statistic RandomGeometricGraph.rgnv[493] 	arrivalPerc:histogram
field count 1
field mean 1
field stddev nan
field sum 1
field sqrsum 1
field min 1
field max 1
attr interpolationmode  none
attr source  count(arrival)
attr title  "arrival perc, histogram"
bin	-INF	0
bin	0	0
bin	1	1
bin	2	0
statistic RandomGeometricGraph.rgnv[494] 	arrivalTime:histogram
field count 1
field mean 348.508
field stddev nan
field sum 348.508
field sqrsum 121457.826064
field min 348.508
field max 348.508
attr interpolationmode  none
attr source  arrivalTime
attr title  "arrival time, histogram"
bin	-INF	0
bin	348.008	0
bin	348.04133333333	0
bin	348.07466666667	0
bin	348.108	0
bin	348.14133333333	0
bin	348.17466666667	0
bin	348.208	0
bin	348.24133333333	0
bin	348.27466666667	0
bin	348.308	0
bin	348.34133333333	0
bin	348.37466666667	0
bin	348.408	0
bin	348.44133333333	0
bin	348.47466666667	0
bin	348.508	1
bin	348.54133333333	0
bin	348.57466666667	0
bin	348.608	0
bin	348.64133333333	0
bin	348.67466666667	0
bin	348.708	0
bin	348.74133333333	0
bin	348.77466666667	0
bin	348.808	0
bin	348.84133333333	0
bin	348.87466666667	0
bin	348.908	0
bin	348.94133333333	0
bin	348.97466666667	0
bin	349.008	0
statistic RandomGeometricGraph.rgnv[494] 	arrivalPerc:histogram
field count 1
field mean 1
field stddev nan
field sum 1
field sqrsum 1
field min 1
field max 1
attr interpolationmode  none
attr source  count(arrival)
attr title  "arrival perc, histogram"
bin	-INF	0
bin	0	0
bin	1	1
bin	2	0
statistic RandomGeometricGraph.rgnv[495] 	arrivalTime:histogram
field count 1
field mean 324.036
field stddev nan
field sum 324.036
field sqrsum 104999.329296
field min 324.036
field max 324.036
attr interpolationmode  none
attr source  arrivalTime
attr title  "arrival time, histogram"
bin	-INF	0
bin	323.536	0
bin	323.56933333333	0
bin	323.60266666667	0
bin	323.636	0
bin	323.66933333333	0
bin	323.70266666667	0
bin	323.736	0
bin	323.76933333333	0
bin	323.80266666667	0
bin	323.836	0
bin	323.86933333333	0
bin	323.90266666667	0
bin	323.936	0
bin	323.96933333333	0
bin	324.00266666667	0
bin	324.036	1
bin	324.06933333333	0
bin	324.10266666667	0
bin	324.136	0
bin	324.16933333333	0
bin	324.20266666667	0
bin	324.236	0
bin	324.26933333333	0
bin	324.30266666667	0
bin	324.336	0
bin	324.36933333333	0
bin	324.40266666667	0
bin	324.436	0
bin	324.46933333333	0
bin	324.50266666667	0
bin	324.536	0
statistic RandomGeometricGraph.rgnv[495] 	arrivalPerc:histogram
field count 1
field mean 1
field stddev nan
field sum 1
field sqrsum 1
field min 1
field max 1
attr interpolationmode  none
attr source  count(arrival)
attr title  "arrival perc, histogram"
bin	-INF	0
bin	0	0
bin	1	1
bin	2	0
statistic RandomGeometricGraph.rgnv[496] 	arrivalTime:histogram
field count 1
field mean 324.046
field stddev nan
field sum 324.046
field sqrsum 105005.810116
field min 324.046
field max 324.046
attr interpolationmode  none
attr source  arrivalTime
attr title  "arrival time, histogram"
bin	-INF	0
bin	323.546	0
bin	323.57933333333	0
bin	323.61266666667	0
bin	323.646	0
bin	323.67933333333	0
bin	323.71266666667	0
bin	323.746	0
bin	323.77933333333	0
bin	323.81266666667	0
bin	323.846	0
bin	323.87933333333	0
bin	323.91266666667	0
bin	323.946	0
bin	323.97933333333	0
bin	324.01266666667	0
bin	324.046	1
bin	324.07933333333	0
bin	324.11266666667	0
bin	324.146	0
bin	324.17933333333	0
bin	324.21266666667	0
bin	324.246	0
bin	324.27933333333	0
bin	324.31266666667	0
bin	324.346	0
bin	324.37933333333	0
bin	324.41266666667	0
bin	324.446	0
bin	324.47933333333	0
bin	324.51266666667	0
bin	324.546	0
statistic RandomGeometricGraph.rgnv[496] 	arrivalPerc:histogram
field count 1
field mean 1
field stddev nan
field sum 1
field sqrsum 1
field min 1
field max 1
attr interpolationmode  none
attr source  count(arrival)
attr title  "arrival perc, histogram"
bin	-INF	0
bin	0	0
bin	1	1
bin	2	0
statistic RandomGeometricGraph.rgnv[497] 	arrivalTime:histogram
field count 1
field mean 49.934
field stddev nan
field sum 49.934
field sqrsum 2493.404356
field min 49.934
field max 49.934
attr interpolationmode  none
attr source  arrivalTime
attr title  "arrival time, histogram"
bin	-INF	0
bin	49.434	0
bin	49.467333333333	0
bin	49.500666666667	0
bin	49.534	0
bin	49.567333333333	0
bin	49.600666666667	0
bin	49.634	0
bin	49.667333333333	0
bin	49.700666666667	0
bin	49.734	0
bin	49.767333333333	0
bin	49.800666666667	0
bin	49.834	0
bin	49.867333333333	0
bin	49.900666666667	0
bin	49.934	1
bin	49.967333333333	0
bin	50.000666666667	0
bin	50.034	0
bin	50.067333333333	0
bin	50.100666666667	0
bin	50.134	0
bin	50.167333333333	0
bin	50.200666666667	0
bin	50.234	0
bin	50.267333333333	0
bin	50.300666666667	0
bin	50.334	0
bin	50.367333333333	0
bin	50.400666666667	0
bin	50.434	0
statistic RandomGeometricGraph.rgnv[497] 	arrivalPerc:histogram
field count 1
field mean 1
field stddev nan
field sum 1
field sqrsum 1
field min 1
field max 1
attr interpolationmode  none
attr source  count(arrival)
attr title  "arrival perc, histogram"
bin	-INF	0
bin	0	0
bin	1	1
bin	2	0
statistic RandomGeometricGraph.rgnv[498] 	arrivalTime:histogram
field count 1
field mean 272.901
field stddev nan
field sum 272.901
field sqrsum 74474.955801
field min 272.901
field max 272.901
attr interpolationmode  none
attr source  arrivalTime
attr title  "arrival time, histogram"
bin	-INF	0
bin	272.401	0
bin	272.43433333333	0
bin	272.46766666667	0
bin	272.501	0
bin	272.53433333333	0
bin	272.56766666667	0
bin	272.601	0
bin	272.63433333333	0
bin	272.66766666667	0
bin	272.701	0
bin	272.73433333333	0
bin	272.76766666667	0
bin	272.801	0
bin	272.83433333333	0
bin	272.86766666667	0
bin	272.901	1
bin	272.93433333333	0
bin	272.96766666667	0
bin	273.001	0
bin	273.03433333333	0
bin	273.06766666667	0
bin	273.101	0
bin	273.13433333333	0
bin	273.16766666667	0
bin	273.201	0
bin	273.23433333333	0
bin	273.26766666667	0
bin	273.301	0
bin	273.33433333333	0
bin	273.36766666667	0
bin	273.401	0
statistic RandomGeometricGraph.rgnv[498] 	arrivalPerc:histogram
field count 1
field mean 1
field stddev nan
field sum 1
field sqrsum 1
field min 1
field max 1
attr interpolationmode  none
attr source  count(arrival)
attr title  "arrival perc, histogram"
bin	-INF	0
bin	0	0
bin	1	1
bin	2	0
statistic RandomGeometricGraph.rgnv[499] 	arrivalTime:histogram
field count 1
field mean 375.759
field stddev nan
field sum 375.759
field sqrsum 141194.826081
field min 375.759
field max 375.759
attr interpolationmode  none
attr source  arrivalTime
attr title  "arrival time, histogram"
bin	-INF	0
bin	375.259	0
bin	375.29233333333	0
bin	375.32566666667	0
bin	375.359	0
bin	375.39233333333	0
bin	375.42566666667	0
bin	375.459	0
bin	375.49233333333	0
bin	375.52566666667	0
bin	375.559	0
bin	375.59233333333	0
bin	375.62566666667	0
bin	375.659	0
bin	375.69233333333	0
bin	375.72566666667	0
bin	375.759	1
bin	375.79233333333	0
bin	375.82566666667	0
bin	375.859	0
bin	375.89233333333	0
bin	375.92566666667	0
bin	375.959	0
bin	375.99233333333	0
bin	376.02566666667	0
bin	376.059	0
bin	376.09233333333	0
bin	376.12566666667	0
bin	376.159	0
bin	376.19233333333	0
bin	376.22566666667	0
bin	376.259	0
statistic RandomGeometricGraph.rgnv[499] 	arrivalPerc:histogram
field count 1
field mean 1
field stddev nan
field sum 1
field sqrsum 1
field min 1
field max 1
attr interpolationmode  none
attr source  count(arrival)
attr title  "arrival perc, histogram"
bin	-INF	0
bin	0	0
bin	1	1
bin	2	0
