version 2
run rgg500-13-20170110-16:26:01-6620
attr configname rgg500
attr datetime 20170110-16:26:01
attr experiment rgg500
attr inifile iniFile/D001/omnetpp_15D001.ini
attr iterationvars ""
attr iterationvars2 $repetition=13
attr measurement ""
attr network blegossipprj.net.randomgeometricgraph.RandomGeometricGraph
attr processid 6620
attr repetition 13
attr replication #13
attr resultdir ../../results/D001/r15D001
attr runnumber 13
attr seedset 13
param RandomGeometricGraph.netSize 500
param RandomGeometricGraph.radius 15
param RandomGeometricGraph.rgnv[*].areaLength 224
param RandomGeometricGraph.rgnv[*].areaWidth 224

statistic RandomGeometricGraph.sc 	arrivalPercentage
field count 469
field mean 1
field stddev 0
field sum 469
field sqrsum 469
field min 1
field max 1
attr type  int
bin	-INF	0
bin	0	0
bin	1	469
bin	2	0
statistic RandomGeometricGraph.sc 	arrivalTime
field count 469
field mean 213.92807249467
field stddev 77.81830783747
field sum 100332.266
field sqrsum 24297950.742636
field min 0
field max 407.452
bin	-INF	0
bin	-76.396	0
bin	-66.209866666667	0
bin	-56.023733333333	0
bin	-45.8376	0
bin	-35.651466666667	0
bin	-25.465333333333	0
bin	-15.2792	0
bin	-5.0930666666667	1
bin	5.0930666666667	1
bin	15.2792	1
bin	25.465333333333	1
bin	35.651466666667	3
bin	45.8376	5
bin	56.023733333333	4
bin	66.209866666667	5
bin	76.396	2
bin	86.582133333333	10
bin	96.768266666667	12
bin	106.9544	16
bin	117.14053333333	7
bin	127.32666666667	14
bin	137.5128	14
bin	147.69893333333	22
bin	157.88506666667	16
bin	168.0712	24
bin	178.25733333333	13
bin	188.44346666667	24
bin	198.6296	18
bin	208.81573333333	25
bin	219.00186666667	21
bin	229.188	210
statistic RandomGeometricGraph.rgnv[0] 	arrivalTime:histogram
field count 1
field mean 111.089
field stddev nan
field sum 111.089
field sqrsum 12340.765921
field min 111.089
field max 111.089
attr interpolationmode  none
attr source  arrivalTime
attr title  "arrival time, histogram"
bin	-INF	0
bin	110.589	0
bin	110.62233333333	0
bin	110.65566666667	0
bin	110.689	0
bin	110.72233333333	0
bin	110.75566666667	0
bin	110.789	0
bin	110.82233333333	0
bin	110.85566666667	0
bin	110.889	0
bin	110.92233333333	0
bin	110.95566666667	0
bin	110.989	0
bin	111.02233333333	0
bin	111.05566666667	0
bin	111.089	1
bin	111.12233333333	0
bin	111.15566666667	0
bin	111.189	0
bin	111.22233333333	0
bin	111.25566666667	0
bin	111.289	0
bin	111.32233333333	0
bin	111.35566666667	0
bin	111.389	0
bin	111.42233333333	0
bin	111.45566666667	0
bin	111.489	0
bin	111.52233333333	0
bin	111.55566666667	0
bin	111.589	0
statistic RandomGeometricGraph.rgnv[0] 	arrivalPerc:histogram
field count 1
field mean 1
field stddev nan
field sum 1
field sqrsum 1
field min 1
field max 1
attr interpolationmode  none
attr source  count(arrival)
attr title  "arrival perc, histogram"
bin	-INF	0
bin	0	0
bin	1	1
bin	2	0
statistic RandomGeometricGraph.rgnv[1] 	arrivalTime:histogram
field count 1
field mean 285.132
field stddev nan
field sum 285.132
field sqrsum 81300.257424
field min 285.132
field max 285.132
attr interpolationmode  none
attr source  arrivalTime
attr title  "arrival time, histogram"
bin	-INF	0
bin	284.632	0
bin	284.66533333333	0
bin	284.69866666667	0
bin	284.732	0
bin	284.76533333333	0
bin	284.79866666667	0
bin	284.832	0
bin	284.86533333333	0
bin	284.89866666667	0
bin	284.932	0
bin	284.96533333333	0
bin	284.99866666667	0
bin	285.032	0
bin	285.06533333333	0
bin	285.09866666667	0
bin	285.132	1
bin	285.16533333333	0
bin	285.19866666667	0
bin	285.232	0
bin	285.26533333333	0
bin	285.29866666667	0
bin	285.332	0
bin	285.36533333333	0
bin	285.39866666667	0
bin	285.432	0
bin	285.46533333333	0
bin	285.49866666667	0
bin	285.532	0
bin	285.56533333333	0
bin	285.59866666667	0
bin	285.632	0
statistic RandomGeometricGraph.rgnv[1] 	arrivalPerc:histogram
field count 1
field mean 1
field stddev nan
field sum 1
field sqrsum 1
field min 1
field max 1
attr interpolationmode  none
attr source  count(arrival)
attr title  "arrival perc, histogram"
bin	-INF	0
bin	0	0
bin	1	1
bin	2	0
statistic RandomGeometricGraph.rgnv[2] 	arrivalTime:histogram
field count 0
field mean nan
field stddev nan
field sum 0
field sqrsum 0
field min nan
field max nan
attr interpolationmode  none
attr source  arrivalTime
attr title  "arrival time, histogram"
bin	-INF	0
bin	-0.5	0
bin	-0.46666666666667	0
bin	-0.43333333333333	0
bin	-0.4	0
bin	-0.36666666666667	0
bin	-0.33333333333333	0
bin	-0.3	0
bin	-0.26666666666667	0
bin	-0.23333333333333	0
bin	-0.2	0
bin	-0.16666666666667	0
bin	-0.13333333333333	0
bin	-0.1	0
bin	-0.066666666666667	0
bin	-0.033333333333333	0
bin	0	0
bin	0.033333333333333	0
bin	0.066666666666667	0
bin	0.1	0
bin	0.13333333333333	0
bin	0.16666666666667	0
bin	0.2	0
bin	0.23333333333333	0
bin	0.26666666666667	0
bin	0.3	0
bin	0.33333333333333	0
bin	0.36666666666667	0
bin	0.4	0
bin	0.43333333333333	0
bin	0.46666666666667	0
bin	0.5	0
statistic RandomGeometricGraph.rgnv[2] 	arrivalPerc:histogram
field count 0
field mean nan
field stddev nan
field sum 0
field sqrsum 0
field min nan
field max nan
attr interpolationmode  none
attr source  count(arrival)
attr title  "arrival perc, histogram"
bin	-INF	0
bin	-0.5	0
bin	-0.46666666666667	0
bin	-0.43333333333333	0
bin	-0.4	0
bin	-0.36666666666667	0
bin	-0.33333333333333	0
bin	-0.3	0
bin	-0.26666666666667	0
bin	-0.23333333333333	0
bin	-0.2	0
bin	-0.16666666666667	0
bin	-0.13333333333333	0
bin	-0.1	0
bin	-0.066666666666667	0
bin	-0.033333333333333	0
bin	0	0
bin	0.033333333333333	0
bin	0.066666666666667	0
bin	0.1	0
bin	0.13333333333333	0
bin	0.16666666666667	0
bin	0.2	0
bin	0.23333333333333	0
bin	0.26666666666667	0
bin	0.3	0
bin	0.33333333333333	0
bin	0.36666666666667	0
bin	0.4	0
bin	0.43333333333333	0
bin	0.46666666666667	0
bin	0.5	0
statistic RandomGeometricGraph.rgnv[3] 	arrivalTime:histogram
field count 1
field mean 299.584
field stddev nan
field sum 299.584
field sqrsum 89750.573056
field min 299.584
field max 299.584
attr interpolationmode  none
attr source  arrivalTime
attr title  "arrival time, histogram"
bin	-INF	0
bin	299.084	0
bin	299.11733333333	0
bin	299.15066666667	0
bin	299.184	0
bin	299.21733333333	0
bin	299.25066666667	0
bin	299.284	0
bin	299.31733333333	0
bin	299.35066666667	0
bin	299.384	0
bin	299.41733333333	0
bin	299.45066666667	0
bin	299.484	0
bin	299.51733333333	0
bin	299.55066666667	0
bin	299.584	1
bin	299.61733333333	0
bin	299.65066666667	0
bin	299.684	0
bin	299.71733333333	0
bin	299.75066666667	0
bin	299.784	0
bin	299.81733333333	0
bin	299.85066666667	0
bin	299.884	0
bin	299.91733333333	0
bin	299.95066666667	0
bin	299.984	0
bin	300.01733333333	0
bin	300.05066666667	0
bin	300.084	0
statistic RandomGeometricGraph.rgnv[3] 	arrivalPerc:histogram
field count 1
field mean 1
field stddev nan
field sum 1
field sqrsum 1
field min 1
field max 1
attr interpolationmode  none
attr source  count(arrival)
attr title  "arrival perc, histogram"
bin	-INF	0
bin	0	0
bin	1	1
bin	2	0
statistic RandomGeometricGraph.rgnv[4] 	arrivalTime:histogram
field count 1
field mean 262.901
field stddev nan
field sum 262.901
field sqrsum 69116.935801
field min 262.901
field max 262.901
attr interpolationmode  none
attr source  arrivalTime
attr title  "arrival time, histogram"
bin	-INF	0
bin	262.401	0
bin	262.43433333333	0
bin	262.46766666667	0
bin	262.501	0
bin	262.53433333333	0
bin	262.56766666667	0
bin	262.601	0
bin	262.63433333333	0
bin	262.66766666667	0
bin	262.701	0
bin	262.73433333333	0
bin	262.76766666667	0
bin	262.801	0
bin	262.83433333333	0
bin	262.86766666667	0
bin	262.901	1
bin	262.93433333333	0
bin	262.96766666667	0
bin	263.001	0
bin	263.03433333333	0
bin	263.06766666667	0
bin	263.101	0
bin	263.13433333333	0
bin	263.16766666667	0
bin	263.201	0
bin	263.23433333333	0
bin	263.26766666667	0
bin	263.301	0
bin	263.33433333333	0
bin	263.36766666667	0
bin	263.401	0
statistic RandomGeometricGraph.rgnv[4] 	arrivalPerc:histogram
field count 1
field mean 1
field stddev nan
field sum 1
field sqrsum 1
field min 1
field max 1
attr interpolationmode  none
attr source  count(arrival)
attr title  "arrival perc, histogram"
bin	-INF	0
bin	0	0
bin	1	1
bin	2	0
statistic RandomGeometricGraph.rgnv[5] 	arrivalTime:histogram
field count 1
field mean 201.726
field stddev nan
field sum 201.726
field sqrsum 40693.379076
field min 201.726
field max 201.726
attr interpolationmode  none
attr source  arrivalTime
attr title  "arrival time, histogram"
bin	-INF	0
bin	201.226	0
bin	201.25933333333	0
bin	201.29266666667	0
bin	201.326	0
bin	201.35933333333	0
bin	201.39266666667	0
bin	201.426	0
bin	201.45933333333	0
bin	201.49266666667	0
bin	201.526	0
bin	201.55933333333	0
bin	201.59266666667	0
bin	201.626	0
bin	201.65933333333	0
bin	201.69266666667	0
bin	201.726	1
bin	201.75933333333	0
bin	201.79266666667	0
bin	201.826	0
bin	201.85933333333	0
bin	201.89266666667	0
bin	201.926	0
bin	201.95933333333	0
bin	201.99266666667	0
bin	202.026	0
bin	202.05933333333	0
bin	202.09266666667	0
bin	202.126	0
bin	202.15933333333	0
bin	202.19266666667	0
bin	202.226	0
statistic RandomGeometricGraph.rgnv[5] 	arrivalPerc:histogram
field count 1
field mean 1
field stddev nan
field sum 1
field sqrsum 1
field min 1
field max 1
attr interpolationmode  none
attr source  count(arrival)
attr title  "arrival perc, histogram"
bin	-INF	0
bin	0	0
bin	1	1
bin	2	0
statistic RandomGeometricGraph.rgnv[6] 	arrivalTime:histogram
field count 1
field mean 182.264
field stddev nan
field sum 182.264
field sqrsum 33220.165696
field min 182.264
field max 182.264
attr interpolationmode  none
attr source  arrivalTime
attr title  "arrival time, histogram"
bin	-INF	0
bin	181.764	0
bin	181.79733333333	0
bin	181.83066666667	0
bin	181.864	0
bin	181.89733333333	0
bin	181.93066666667	0
bin	181.964	0
bin	181.99733333333	0
bin	182.03066666667	0
bin	182.064	0
bin	182.09733333333	0
bin	182.13066666667	0
bin	182.164	0
bin	182.19733333333	0
bin	182.23066666667	0
bin	182.264	1
bin	182.29733333333	0
bin	182.33066666667	0
bin	182.364	0
bin	182.39733333333	0
bin	182.43066666667	0
bin	182.464	0
bin	182.49733333333	0
bin	182.53066666667	0
bin	182.564	0
bin	182.59733333333	0
bin	182.63066666667	0
bin	182.664	0
bin	182.69733333333	0
bin	182.73066666667	0
bin	182.764	0
statistic RandomGeometricGraph.rgnv[6] 	arrivalPerc:histogram
field count 1
field mean 1
field stddev nan
field sum 1
field sqrsum 1
field min 1
field max 1
attr interpolationmode  none
attr source  count(arrival)
attr title  "arrival perc, histogram"
bin	-INF	0
bin	0	0
bin	1	1
bin	2	0
statistic RandomGeometricGraph.rgnv[7] 	arrivalTime:histogram
field count 1
field mean 213.957
field stddev nan
field sum 213.957
field sqrsum 45777.597849
field min 213.957
field max 213.957
attr interpolationmode  none
attr source  arrivalTime
attr title  "arrival time, histogram"
bin	-INF	0
bin	213.457	0
bin	213.49033333333	0
bin	213.52366666667	0
bin	213.557	0
bin	213.59033333333	0
bin	213.62366666667	0
bin	213.657	0
bin	213.69033333333	0
bin	213.72366666667	0
bin	213.757	0
bin	213.79033333333	0
bin	213.82366666667	0
bin	213.857	0
bin	213.89033333333	0
bin	213.92366666667	0
bin	213.957	1
bin	213.99033333333	0
bin	214.02366666667	0
bin	214.057	0
bin	214.09033333333	0
bin	214.12366666667	0
bin	214.157	0
bin	214.19033333333	0
bin	214.22366666667	0
bin	214.257	0
bin	214.29033333333	0
bin	214.32366666667	0
bin	214.357	0
bin	214.39033333333	0
bin	214.42366666667	0
bin	214.457	0
statistic RandomGeometricGraph.rgnv[7] 	arrivalPerc:histogram
field count 1
field mean 1
field stddev nan
field sum 1
field sqrsum 1
field min 1
field max 1
attr interpolationmode  none
attr source  count(arrival)
attr title  "arrival perc, histogram"
bin	-INF	0
bin	0	0
bin	1	1
bin	2	0
statistic RandomGeometricGraph.rgnv[8] 	arrivalTime:histogram
field count 1
field mean 194.495
field stddev nan
field sum 194.495
field sqrsum 37828.305025
field min 194.495
field max 194.495
attr interpolationmode  none
attr source  arrivalTime
attr title  "arrival time, histogram"
bin	-INF	0
bin	193.995	0
bin	194.02833333333	0
bin	194.06166666667	0
bin	194.095	0
bin	194.12833333333	0
bin	194.16166666667	0
bin	194.195	0
bin	194.22833333333	0
bin	194.26166666667	0
bin	194.295	0
bin	194.32833333333	0
bin	194.36166666667	0
bin	194.395	0
bin	194.42833333333	0
bin	194.46166666667	0
bin	194.495	1
bin	194.52833333333	0
bin	194.56166666667	0
bin	194.595	0
bin	194.62833333333	0
bin	194.66166666667	0
bin	194.695	0
bin	194.72833333333	0
bin	194.76166666667	0
bin	194.795	0
bin	194.82833333333	0
bin	194.86166666667	0
bin	194.895	0
bin	194.92833333333	0
bin	194.96166666667	0
bin	194.995	0
statistic RandomGeometricGraph.rgnv[8] 	arrivalPerc:histogram
field count 1
field mean 1
field stddev nan
field sum 1
field sqrsum 1
field min 1
field max 1
attr interpolationmode  none
attr source  count(arrival)
attr title  "arrival perc, histogram"
bin	-INF	0
bin	0	0
bin	1	1
bin	2	0
statistic RandomGeometricGraph.rgnv[9] 	arrivalTime:histogram
field count 1
field mean 177.264
field stddev nan
field sum 177.264
field sqrsum 31422.525696
field min 177.264
field max 177.264
attr interpolationmode  none
attr source  arrivalTime
attr title  "arrival time, histogram"
bin	-INF	0
bin	176.764	0
bin	176.79733333333	0
bin	176.83066666667	0
bin	176.864	0
bin	176.89733333333	0
bin	176.93066666667	0
bin	176.964	0
bin	176.99733333333	0
bin	177.03066666667	0
bin	177.064	0
bin	177.09733333333	0
bin	177.13066666667	0
bin	177.164	0
bin	177.19733333333	0
bin	177.23066666667	0
bin	177.264	1
bin	177.29733333333	0
bin	177.33066666667	0
bin	177.364	0
bin	177.39733333333	0
bin	177.43066666667	0
bin	177.464	0
bin	177.49733333333	0
bin	177.53066666667	0
bin	177.564	0
bin	177.59733333333	0
bin	177.63066666667	0
bin	177.664	0
bin	177.69733333333	0
bin	177.73066666667	0
bin	177.764	0
statistic RandomGeometricGraph.rgnv[9] 	arrivalPerc:histogram
field count 1
field mean 1
field stddev nan
field sum 1
field sqrsum 1
field min 1
field max 1
attr interpolationmode  none
attr source  count(arrival)
attr title  "arrival perc, histogram"
bin	-INF	0
bin	0	0
bin	1	1
bin	2	0
statistic RandomGeometricGraph.rgnv[10] 	arrivalTime:histogram
field count 1
field mean 103.878
field stddev nan
field sum 103.878
field sqrsum 10790.638884
field min 103.878
field max 103.878
attr interpolationmode  none
attr source  arrivalTime
attr title  "arrival time, histogram"
bin	-INF	0
bin	103.378	0
bin	103.41133333333	0
bin	103.44466666667	0
bin	103.478	0
bin	103.51133333333	0
bin	103.54466666667	0
bin	103.578	0
bin	103.61133333333	0
bin	103.64466666667	0
bin	103.678	0
bin	103.71133333333	0
bin	103.74466666667	0
bin	103.778	0
bin	103.81133333333	0
bin	103.84466666667	0
bin	103.878	1
bin	103.91133333333	0
bin	103.94466666667	0
bin	103.978	0
bin	104.01133333333	0
bin	104.04466666667	0
bin	104.078	0
bin	104.11133333333	0
bin	104.14466666667	0
bin	104.178	0
bin	104.21133333333	0
bin	104.24466666667	0
bin	104.278	0
bin	104.31133333333	0
bin	104.34466666667	0
bin	104.378	0
statistic RandomGeometricGraph.rgnv[10] 	arrivalPerc:histogram
field count 1
field mean 1
field stddev nan
field sum 1
field sqrsum 1
field min 1
field max 1
attr interpolationmode  none
attr source  count(arrival)
attr title  "arrival perc, histogram"
bin	-INF	0
bin	0	0
bin	1	1
bin	2	0
statistic RandomGeometricGraph.rgnv[11] 	arrivalTime:histogram
field count 1
field mean 226.198
field stddev nan
field sum 226.198
field sqrsum 51165.535204
field min 226.198
field max 226.198
attr interpolationmode  none
attr source  arrivalTime
attr title  "arrival time, histogram"
bin	-INF	0
bin	225.698	0
bin	225.73133333333	0
bin	225.76466666667	0
bin	225.798	0
bin	225.83133333333	0
bin	225.86466666667	0
bin	225.898	0
bin	225.93133333333	0
bin	225.96466666667	0
bin	225.998	0
bin	226.03133333333	0
bin	226.06466666667	0
bin	226.098	0
bin	226.13133333333	0
bin	226.16466666667	0
bin	226.198	1
bin	226.23133333333	0
bin	226.26466666667	0
bin	226.298	0
bin	226.33133333333	0
bin	226.36466666667	0
bin	226.398	0
bin	226.43133333333	0
bin	226.46466666667	0
bin	226.498	0
bin	226.53133333333	0
bin	226.56466666667	0
bin	226.598	0
bin	226.63133333333	0
bin	226.66466666667	0
bin	226.698	0
statistic RandomGeometricGraph.rgnv[11] 	arrivalPerc:histogram
field count 1
field mean 1
field stddev nan
field sum 1
field sqrsum 1
field min 1
field max 1
attr interpolationmode  none
attr source  count(arrival)
attr title  "arrival perc, histogram"
bin	-INF	0
bin	0	0
bin	1	1
bin	2	0
statistic RandomGeometricGraph.rgnv[12] 	arrivalTime:histogram
field count 1
field mean 226.188
field stddev nan
field sum 226.188
field sqrsum 51161.011344
field min 226.188
field max 226.188
attr interpolationmode  none
attr source  arrivalTime
attr title  "arrival time, histogram"
bin	-INF	0
bin	225.688	0
bin	225.72133333333	0
bin	225.75466666667	0
bin	225.788	0
bin	225.82133333333	0
bin	225.85466666667	0
bin	225.888	0
bin	225.92133333333	0
bin	225.95466666667	0
bin	225.988	0
bin	226.02133333333	0
bin	226.05466666667	0
bin	226.088	0
bin	226.12133333333	0
bin	226.15466666667	0
bin	226.188	1
bin	226.22133333333	0
bin	226.25466666667	0
bin	226.288	0
bin	226.32133333333	0
bin	226.35466666667	0
bin	226.388	0
bin	226.42133333333	0
bin	226.45466666667	0
bin	226.488	0
bin	226.52133333333	0
bin	226.55466666667	0
bin	226.588	0
bin	226.62133333333	0
bin	226.65466666667	0
bin	226.688	0
statistic RandomGeometricGraph.rgnv[12] 	arrivalPerc:histogram
field count 1
field mean 1
field stddev nan
field sum 1
field sqrsum 1
field min 1
field max 1
attr interpolationmode  none
attr source  count(arrival)
attr title  "arrival perc, histogram"
bin	-INF	0
bin	0	0
bin	1	1
bin	2	0
statistic RandomGeometricGraph.rgnv[13] 	arrivalTime:histogram
field count 1
field mean 25.462
field stddev nan
field sum 25.462
field sqrsum 648.313444
field min 25.462
field max 25.462
attr interpolationmode  none
attr source  arrivalTime
attr title  "arrival time, histogram"
bin	-INF	0
bin	24.962	0
bin	24.995333333333	0
bin	25.028666666667	0
bin	25.062	0
bin	25.095333333333	0
bin	25.128666666667	0
bin	25.162	0
bin	25.195333333333	0
bin	25.228666666667	0
bin	25.262	0
bin	25.295333333333	0
bin	25.328666666667	0
bin	25.362	0
bin	25.395333333333	0
bin	25.428666666667	0
bin	25.462	1
bin	25.495333333333	0
bin	25.528666666667	0
bin	25.562	0
bin	25.595333333333	0
bin	25.628666666667	0
bin	25.662	0
bin	25.695333333333	0
bin	25.728666666667	0
bin	25.762	0
bin	25.795333333333	0
bin	25.828666666667	0
bin	25.862	0
bin	25.895333333333	0
bin	25.928666666667	0
bin	25.962	0
statistic RandomGeometricGraph.rgnv[13] 	arrivalPerc:histogram
field count 1
field mean 1
field stddev nan
field sum 1
field sqrsum 1
field min 1
field max 1
attr interpolationmode  none
attr source  count(arrival)
attr title  "arrival perc, histogram"
bin	-INF	0
bin	0	0
bin	1	1
bin	2	0
statistic RandomGeometricGraph.rgnv[14] 	arrivalTime:histogram
field count 1
field mean 152.802
field stddev nan
field sum 152.802
field sqrsum 23348.451204
field min 152.802
field max 152.802
attr interpolationmode  none
attr source  arrivalTime
attr title  "arrival time, histogram"
bin	-INF	0
bin	152.302	0
bin	152.33533333333	0
bin	152.36866666667	0
bin	152.402	0
bin	152.43533333333	0
bin	152.46866666667	0
bin	152.502	0
bin	152.53533333333	0
bin	152.56866666667	0
bin	152.602	0
bin	152.63533333333	0
bin	152.66866666667	0
bin	152.702	0
bin	152.73533333333	0
bin	152.76866666667	0
bin	152.802	1
bin	152.83533333333	0
bin	152.86866666667	0
bin	152.902	0
bin	152.93533333333	0
bin	152.96866666667	0
bin	153.002	0
bin	153.03533333333	0
bin	153.06866666667	0
bin	153.102	0
bin	153.13533333333	0
bin	153.16866666667	0
bin	153.202	0
bin	153.23533333333	0
bin	153.26866666667	0
bin	153.302	0
statistic RandomGeometricGraph.rgnv[14] 	arrivalPerc:histogram
field count 1
field mean 1
field stddev nan
field sum 1
field sqrsum 1
field min 1
field max 1
attr interpolationmode  none
attr source  count(arrival)
attr title  "arrival perc, histogram"
bin	-INF	0
bin	0	0
bin	1	1
bin	2	0
statistic RandomGeometricGraph.rgnv[15] 	arrivalTime:histogram
field count 1
field mean 98.868
field stddev nan
field sum 98.868
field sqrsum 9774.881424
field min 98.868
field max 98.868
attr interpolationmode  none
attr source  arrivalTime
attr title  "arrival time, histogram"
bin	-INF	0
bin	98.368	0
bin	98.401333333333	0
bin	98.434666666667	0
bin	98.468	0
bin	98.501333333333	0
bin	98.534666666667	0
bin	98.568	0
bin	98.601333333333	0
bin	98.634666666667	0
bin	98.668	0
bin	98.701333333333	0
bin	98.734666666667	0
bin	98.768	0
bin	98.801333333333	0
bin	98.834666666667	0
bin	98.868	1
bin	98.901333333333	0
bin	98.934666666667	0
bin	98.968	0
bin	99.001333333333	0
bin	99.034666666667	0
bin	99.068	0
bin	99.101333333333	0
bin	99.134666666667	0
bin	99.168	0
bin	99.201333333333	0
bin	99.234666666667	0
bin	99.268	0
bin	99.301333333333	0
bin	99.334666666667	0
bin	99.368	0
statistic RandomGeometricGraph.rgnv[15] 	arrivalPerc:histogram
field count 1
field mean 1
field stddev nan
field sum 1
field sqrsum 1
field min 1
field max 1
attr interpolationmode  none
attr source  count(arrival)
attr title  "arrival perc, histogram"
bin	-INF	0
bin	0	0
bin	1	1
bin	2	0
statistic RandomGeometricGraph.rgnv[16] 	arrivalTime:histogram
field count 1
field mean 49.934
field stddev nan
field sum 49.934
field sqrsum 2493.404356
field min 49.934
field max 49.934
attr interpolationmode  none
attr source  arrivalTime
attr title  "arrival time, histogram"
bin	-INF	0
bin	49.434	0
bin	49.467333333333	0
bin	49.500666666667	0
bin	49.534	0
bin	49.567333333333	0
bin	49.600666666667	0
bin	49.634	0
bin	49.667333333333	0
bin	49.700666666667	0
bin	49.734	0
bin	49.767333333333	0
bin	49.800666666667	0
bin	49.834	0
bin	49.867333333333	0
bin	49.900666666667	0
bin	49.934	1
bin	49.967333333333	0
bin	50.000666666667	0
bin	50.034	0
bin	50.067333333333	0
bin	50.100666666667	0
bin	50.134	0
bin	50.167333333333	0
bin	50.200666666667	0
bin	50.234	0
bin	50.267333333333	0
bin	50.300666666667	0
bin	50.334	0
bin	50.367333333333	0
bin	50.400666666667	0
bin	50.434	0
statistic RandomGeometricGraph.rgnv[16] 	arrivalPerc:histogram
field count 1
field mean 1
field stddev nan
field sum 1
field sqrsum 1
field min 1
field max 1
attr interpolationmode  none
attr source  count(arrival)
attr title  "arrival perc, histogram"
bin	-INF	0
bin	0	0
bin	1	1
bin	2	0
statistic RandomGeometricGraph.rgnv[17] 	arrivalTime:histogram
field count 1
field mean 250.66
field stddev nan
field sum 250.66
field sqrsum 62830.4356
field min 250.66
field max 250.66
attr interpolationmode  none
attr source  arrivalTime
attr title  "arrival time, histogram"
bin	-INF	0
bin	250.16	0
bin	250.19333333333	0
bin	250.22666666667	0
bin	250.26	0
bin	250.29333333333	0
bin	250.32666666667	0
bin	250.36	0
bin	250.39333333333	0
bin	250.42666666667	0
bin	250.46	0
bin	250.49333333333	0
bin	250.52666666667	0
bin	250.56	0
bin	250.59333333333	0
bin	250.62666666667	0
bin	250.66	1
bin	250.69333333333	0
bin	250.72666666667	0
bin	250.76	0
bin	250.79333333333	0
bin	250.82666666667	0
bin	250.86	0
bin	250.89333333333	0
bin	250.92666666667	0
bin	250.96	0
bin	250.99333333333	0
bin	251.02666666667	0
bin	251.06	0
bin	251.09333333333	0
bin	251.12666666667	0
bin	251.16	0
statistic RandomGeometricGraph.rgnv[17] 	arrivalPerc:histogram
field count 1
field mean 1
field stddev nan
field sum 1
field sqrsum 1
field min 1
field max 1
attr interpolationmode  none
attr source  count(arrival)
attr title  "arrival perc, histogram"
bin	-INF	0
bin	0	0
bin	1	1
bin	2	0
statistic RandomGeometricGraph.rgnv[18] 	arrivalTime:histogram
field count 1
field mean 116.099
field stddev nan
field sum 116.099
field sqrsum 13478.977801
field min 116.099
field max 116.099
attr interpolationmode  none
attr source  arrivalTime
attr title  "arrival time, histogram"
bin	-INF	0
bin	115.599	0
bin	115.63233333333	0
bin	115.66566666667	0
bin	115.699	0
bin	115.73233333333	0
bin	115.76566666667	0
bin	115.799	0
bin	115.83233333333	0
bin	115.86566666667	0
bin	115.899	0
bin	115.93233333333	0
bin	115.96566666667	0
bin	115.999	0
bin	116.03233333333	0
bin	116.06566666667	0
bin	116.099	1
bin	116.13233333333	0
bin	116.16566666667	0
bin	116.199	0
bin	116.23233333333	0
bin	116.26566666667	0
bin	116.299	0
bin	116.33233333333	0
bin	116.36566666667	0
bin	116.399	0
bin	116.43233333333	0
bin	116.46566666667	0
bin	116.499	0
bin	116.53233333333	0
bin	116.56566666667	0
bin	116.599	0
statistic RandomGeometricGraph.rgnv[18] 	arrivalPerc:histogram
field count 1
field mean 1
field stddev nan
field sum 1
field sqrsum 1
field min 1
field max 1
attr interpolationmode  none
attr source  count(arrival)
attr title  "arrival perc, histogram"
bin	-INF	0
bin	0	0
bin	1	1
bin	2	0
statistic RandomGeometricGraph.rgnv[19] 	arrivalTime:histogram
field count 1
field mean 299.574
field stddev nan
field sum 299.574
field sqrsum 89744.581476
field min 299.574
field max 299.574
attr interpolationmode  none
attr source  arrivalTime
attr title  "arrival time, histogram"
bin	-INF	0
bin	299.074	0
bin	299.10733333333	0
bin	299.14066666667	0
bin	299.174	0
bin	299.20733333333	0
bin	299.24066666667	0
bin	299.274	0
bin	299.30733333333	0
bin	299.34066666667	0
bin	299.374	0
bin	299.40733333333	0
bin	299.44066666667	0
bin	299.474	0
bin	299.50733333333	0
bin	299.54066666667	0
bin	299.574	1
bin	299.60733333333	0
bin	299.64066666667	0
bin	299.674	0
bin	299.70733333333	0
bin	299.74066666667	0
bin	299.774	0
bin	299.80733333333	0
bin	299.84066666667	0
bin	299.874	0
bin	299.90733333333	0
bin	299.94066666667	0
bin	299.974	0
bin	300.00733333333	0
bin	300.04066666667	0
bin	300.074	0
statistic RandomGeometricGraph.rgnv[19] 	arrivalPerc:histogram
field count 1
field mean 1
field stddev nan
field sum 1
field sqrsum 1
field min 1
field max 1
attr interpolationmode  none
attr source  count(arrival)
attr title  "arrival perc, histogram"
bin	-INF	0
bin	0	0
bin	1	1
bin	2	0
statistic RandomGeometricGraph.rgnv[20] 	arrivalTime:histogram
field count 1
field mean 145.581
field stddev nan
field sum 145.581
field sqrsum 21193.827561
field min 145.581
field max 145.581
attr interpolationmode  none
attr source  arrivalTime
attr title  "arrival time, histogram"
bin	-INF	0
bin	145.081	0
bin	145.11433333333	0
bin	145.14766666667	0
bin	145.181	0
bin	145.21433333333	0
bin	145.24766666667	0
bin	145.281	0
bin	145.31433333333	0
bin	145.34766666667	0
bin	145.381	0
bin	145.41433333333	0
bin	145.44766666667	0
bin	145.481	0
bin	145.51433333333	0
bin	145.54766666667	0
bin	145.581	1
bin	145.61433333333	0
bin	145.64766666667	0
bin	145.681	0
bin	145.71433333333	0
bin	145.74766666667	0
bin	145.781	0
bin	145.81433333333	0
bin	145.84766666667	0
bin	145.881	0
bin	145.91433333333	0
bin	145.94766666667	0
bin	145.981	0
bin	146.01433333333	0
bin	146.04766666667	0
bin	146.081	0
statistic RandomGeometricGraph.rgnv[20] 	arrivalPerc:histogram
field count 1
field mean 1
field stddev nan
field sum 1
field sqrsum 1
field min 1
field max 1
attr interpolationmode  none
attr source  count(arrival)
attr title  "arrival perc, histogram"
bin	-INF	0
bin	0	0
bin	1	1
bin	2	0
statistic RandomGeometricGraph.rgnv[21] 	arrivalTime:histogram
field count 1
field mean 236.208
field stddev nan
field sum 236.208
field sqrsum 55794.219264
field min 236.208
field max 236.208
attr interpolationmode  none
attr source  arrivalTime
attr title  "arrival time, histogram"
bin	-INF	0
bin	235.708	0
bin	235.74133333333	0
bin	235.77466666667	0
bin	235.808	0
bin	235.84133333333	0
bin	235.87466666667	0
bin	235.908	0
bin	235.94133333333	0
bin	235.97466666667	0
bin	236.008	0
bin	236.04133333333	0
bin	236.07466666667	0
bin	236.108	0
bin	236.14133333333	0
bin	236.17466666667	0
bin	236.208	1
bin	236.24133333333	0
bin	236.27466666667	0
bin	236.308	0
bin	236.34133333333	0
bin	236.37466666667	0
bin	236.408	0
bin	236.44133333333	0
bin	236.47466666667	0
bin	236.508	0
bin	236.54133333333	0
bin	236.57466666667	0
bin	236.608	0
bin	236.64133333333	0
bin	236.67466666667	0
bin	236.708	0
statistic RandomGeometricGraph.rgnv[21] 	arrivalPerc:histogram
field count 1
field mean 1
field stddev nan
field sum 1
field sqrsum 1
field min 1
field max 1
attr interpolationmode  none
attr source  count(arrival)
attr title  "arrival perc, histogram"
bin	-INF	0
bin	0	0
bin	1	1
bin	2	0
statistic RandomGeometricGraph.rgnv[22] 	arrivalTime:histogram
field count 1
field mean 272.891
field stddev nan
field sum 272.891
field sqrsum 74469.497881
field min 272.891
field max 272.891
attr interpolationmode  none
attr source  arrivalTime
attr title  "arrival time, histogram"
bin	-INF	0
bin	272.391	0
bin	272.42433333333	0
bin	272.45766666667	0
bin	272.491	0
bin	272.52433333333	0
bin	272.55766666667	0
bin	272.591	0
bin	272.62433333333	0
bin	272.65766666667	0
bin	272.691	0
bin	272.72433333333	0
bin	272.75766666667	0
bin	272.791	0
bin	272.82433333333	0
bin	272.85766666667	0
bin	272.891	1
bin	272.92433333333	0
bin	272.95766666667	0
bin	272.991	0
bin	273.02433333333	0
bin	273.05766666667	0
bin	273.091	0
bin	273.12433333333	0
bin	273.15766666667	0
bin	273.191	0
bin	273.22433333333	0
bin	273.25766666667	0
bin	273.291	0
bin	273.32433333333	0
bin	273.35766666667	0
bin	273.391	0
statistic RandomGeometricGraph.rgnv[22] 	arrivalPerc:histogram
field count 1
field mean 1
field stddev nan
field sum 1
field sqrsum 1
field min 1
field max 1
attr interpolationmode  none
attr source  count(arrival)
attr title  "arrival perc, histogram"
bin	-INF	0
bin	0	0
bin	1	1
bin	2	0
statistic RandomGeometricGraph.rgnv[23] 	arrivalTime:histogram
field count 1
field mean 147.792
field stddev nan
field sum 147.792
field sqrsum 21842.475264
field min 147.792
field max 147.792
attr interpolationmode  none
attr source  arrivalTime
attr title  "arrival time, histogram"
bin	-INF	0
bin	147.292	0
bin	147.32533333333	0
bin	147.35866666667	0
bin	147.392	0
bin	147.42533333333	0
bin	147.45866666667	0
bin	147.492	0
bin	147.52533333333	0
bin	147.55866666667	0
bin	147.592	0
bin	147.62533333333	0
bin	147.65866666667	0
bin	147.692	0
bin	147.72533333333	0
bin	147.75866666667	0
bin	147.792	1
bin	147.82533333333	0
bin	147.85866666667	0
bin	147.892	0
bin	147.92533333333	0
bin	147.95866666667	0
bin	147.992	0
bin	148.02533333333	0
bin	148.05866666667	0
bin	148.092	0
bin	148.12533333333	0
bin	148.15866666667	0
bin	148.192	0
bin	148.22533333333	0
bin	148.25866666667	0
bin	148.292	0
statistic RandomGeometricGraph.rgnv[23] 	arrivalPerc:histogram
field count 1
field mean 1
field stddev nan
field sum 1
field sqrsum 1
field min 1
field max 1
attr interpolationmode  none
attr source  count(arrival)
attr title  "arrival perc, histogram"
bin	-INF	0
bin	0	0
bin	1	1
bin	2	0
statistic RandomGeometricGraph.rgnv[24] 	arrivalTime:histogram
field count 1
field mean 231.198
field stddev nan
field sum 231.198
field sqrsum 53452.515204
field min 231.198
field max 231.198
attr interpolationmode  none
attr source  arrivalTime
attr title  "arrival time, histogram"
bin	-INF	0
bin	230.698	0
bin	230.73133333333	0
bin	230.76466666667	0
bin	230.798	0
bin	230.83133333333	0
bin	230.86466666667	0
bin	230.898	0
bin	230.93133333333	0
bin	230.96466666667	0
bin	230.998	0
bin	231.03133333333	0
bin	231.06466666667	0
bin	231.098	0
bin	231.13133333333	0
bin	231.16466666667	0
bin	231.198	1
bin	231.23133333333	0
bin	231.26466666667	0
bin	231.298	0
bin	231.33133333333	0
bin	231.36466666667	0
bin	231.398	0
bin	231.43133333333	0
bin	231.46466666667	0
bin	231.498	0
bin	231.53133333333	0
bin	231.56466666667	0
bin	231.598	0
bin	231.63133333333	0
bin	231.66466666667	0
bin	231.698	0
statistic RandomGeometricGraph.rgnv[24] 	arrivalPerc:histogram
field count 1
field mean 1
field stddev nan
field sum 1
field sqrsum 1
field min 1
field max 1
attr interpolationmode  none
attr source  count(arrival)
attr title  "arrival perc, histogram"
bin	-INF	0
bin	0	0
bin	1	1
bin	2	0
statistic RandomGeometricGraph.rgnv[25] 	arrivalTime:histogram
field count 1
field mean 189.495
field stddev nan
field sum 189.495
field sqrsum 35908.355025
field min 189.495
field max 189.495
attr interpolationmode  none
attr source  arrivalTime
attr title  "arrival time, histogram"
bin	-INF	0
bin	188.995	0
bin	189.02833333333	0
bin	189.06166666667	0
bin	189.095	0
bin	189.12833333333	0
bin	189.16166666667	0
bin	189.195	0
bin	189.22833333333	0
bin	189.26166666667	0
bin	189.295	0
bin	189.32833333333	0
bin	189.36166666667	0
bin	189.395	0
bin	189.42833333333	0
bin	189.46166666667	0
bin	189.495	1
bin	189.52833333333	0
bin	189.56166666667	0
bin	189.595	0
bin	189.62833333333	0
bin	189.66166666667	0
bin	189.695	0
bin	189.72833333333	0
bin	189.76166666667	0
bin	189.795	0
bin	189.82833333333	0
bin	189.86166666667	0
bin	189.895	0
bin	189.92833333333	0
bin	189.96166666667	0
bin	189.995	0
statistic RandomGeometricGraph.rgnv[25] 	arrivalPerc:histogram
field count 1
field mean 1
field stddev nan
field sum 1
field sqrsum 1
field min 1
field max 1
attr interpolationmode  none
attr source  count(arrival)
attr title  "arrival perc, histogram"
bin	-INF	0
bin	0	0
bin	1	1
bin	2	0
statistic RandomGeometricGraph.rgnv[26] 	arrivalTime:histogram
field count 1
field mean 280.102
field stddev nan
field sum 280.102
field sqrsum 78457.130404
field min 280.102
field max 280.102
attr interpolationmode  none
attr source  arrivalTime
attr title  "arrival time, histogram"
bin	-INF	0
bin	279.602	0
bin	279.63533333333	0
bin	279.66866666667	0
bin	279.702	0
bin	279.73533333333	0
bin	279.76866666667	0
bin	279.802	0
bin	279.83533333333	0
bin	279.86866666667	0
bin	279.902	0
bin	279.93533333333	0
bin	279.96866666667	0
bin	280.002	0
bin	280.03533333333	0
bin	280.06866666667	0
bin	280.102	1
bin	280.13533333333	0
bin	280.16866666667	0
bin	280.202	0
bin	280.23533333333	0
bin	280.26866666667	0
bin	280.302	0
bin	280.33533333333	0
bin	280.36866666667	0
bin	280.402	0
bin	280.43533333333	0
bin	280.46866666667	0
bin	280.502	0
bin	280.53533333333	0
bin	280.56866666667	0
bin	280.602	0
statistic RandomGeometricGraph.rgnv[26] 	arrivalPerc:histogram
field count 1
field mean 1
field stddev nan
field sum 1
field sqrsum 1
field min 1
field max 1
attr interpolationmode  none
attr source  count(arrival)
attr title  "arrival perc, histogram"
bin	-INF	0
bin	0	0
bin	1	1
bin	2	0
statistic RandomGeometricGraph.rgnv[27] 	arrivalTime:histogram
field count 0
field mean nan
field stddev nan
field sum 0
field sqrsum 0
field min nan
field max nan
attr interpolationmode  none
attr source  arrivalTime
attr title  "arrival time, histogram"
bin	-INF	0
bin	-0.5	0
bin	-0.46666666666667	0
bin	-0.43333333333333	0
bin	-0.4	0
bin	-0.36666666666667	0
bin	-0.33333333333333	0
bin	-0.3	0
bin	-0.26666666666667	0
bin	-0.23333333333333	0
bin	-0.2	0
bin	-0.16666666666667	0
bin	-0.13333333333333	0
bin	-0.1	0
bin	-0.066666666666667	0
bin	-0.033333333333333	0
bin	0	0
bin	0.033333333333333	0
bin	0.066666666666667	0
bin	0.1	0
bin	0.13333333333333	0
bin	0.16666666666667	0
bin	0.2	0
bin	0.23333333333333	0
bin	0.26666666666667	0
bin	0.3	0
bin	0.33333333333333	0
bin	0.36666666666667	0
bin	0.4	0
bin	0.43333333333333	0
bin	0.46666666666667	0
bin	0.5	0
statistic RandomGeometricGraph.rgnv[27] 	arrivalPerc:histogram
field count 0
field mean nan
field stddev nan
field sum 0
field sqrsum 0
field min nan
field max nan
attr interpolationmode  none
attr source  count(arrival)
attr title  "arrival perc, histogram"
bin	-INF	0
bin	-0.5	0
bin	-0.46666666666667	0
bin	-0.43333333333333	0
bin	-0.4	0
bin	-0.36666666666667	0
bin	-0.33333333333333	0
bin	-0.3	0
bin	-0.26666666666667	0
bin	-0.23333333333333	0
bin	-0.2	0
bin	-0.16666666666667	0
bin	-0.13333333333333	0
bin	-0.1	0
bin	-0.066666666666667	0
bin	-0.033333333333333	0
bin	0	0
bin	0.033333333333333	0
bin	0.066666666666667	0
bin	0.1	0
bin	0.13333333333333	0
bin	0.16666666666667	0
bin	0.2	0
bin	0.23333333333333	0
bin	0.26666666666667	0
bin	0.3	0
bin	0.33333333333333	0
bin	0.36666666666667	0
bin	0.4	0
bin	0.43333333333333	0
bin	0.46666666666667	0
bin	0.5	0
statistic RandomGeometricGraph.rgnv[28] 	arrivalTime:histogram
field count 1
field mean 231.198
field stddev nan
field sum 231.198
field sqrsum 53452.515204
field min 231.198
field max 231.198
attr interpolationmode  none
attr source  arrivalTime
attr title  "arrival time, histogram"
bin	-INF	0
bin	230.698	0
bin	230.73133333333	0
bin	230.76466666667	0
bin	230.798	0
bin	230.83133333333	0
bin	230.86466666667	0
bin	230.898	0
bin	230.93133333333	0
bin	230.96466666667	0
bin	230.998	0
bin	231.03133333333	0
bin	231.06466666667	0
bin	231.098	0
bin	231.13133333333	0
bin	231.16466666667	0
bin	231.198	1
bin	231.23133333333	0
bin	231.26466666667	0
bin	231.298	0
bin	231.33133333333	0
bin	231.36466666667	0
bin	231.398	0
bin	231.43133333333	0
bin	231.46466666667	0
bin	231.498	0
bin	231.53133333333	0
bin	231.56466666667	0
bin	231.598	0
bin	231.63133333333	0
bin	231.66466666667	0
bin	231.698	0
statistic RandomGeometricGraph.rgnv[28] 	arrivalPerc:histogram
field count 1
field mean 1
field stddev nan
field sum 1
field sqrsum 1
field min 1
field max 1
attr interpolationmode  none
attr source  count(arrival)
attr title  "arrival perc, histogram"
bin	-INF	0
bin	0	0
bin	1	1
bin	2	0
statistic RandomGeometricGraph.rgnv[29] 	arrivalTime:histogram
field count 1
field mean 231.178
field stddev nan
field sum 231.178
field sqrsum 53443.267684
field min 231.178
field max 231.178
attr interpolationmode  none
attr source  arrivalTime
attr title  "arrival time, histogram"
bin	-INF	0
bin	230.678	0
bin	230.71133333333	0
bin	230.74466666667	0
bin	230.778	0
bin	230.81133333333	0
bin	230.84466666667	0
bin	230.878	0
bin	230.91133333333	0
bin	230.94466666667	0
bin	230.978	0
bin	231.01133333333	0
bin	231.04466666667	0
bin	231.078	0
bin	231.11133333333	0
bin	231.14466666667	0
bin	231.178	1
bin	231.21133333333	0
bin	231.24466666667	0
bin	231.278	0
bin	231.31133333333	0
bin	231.34466666667	0
bin	231.378	0
bin	231.41133333333	0
bin	231.44466666667	0
bin	231.478	0
bin	231.51133333333	0
bin	231.54466666667	0
bin	231.578	0
bin	231.61133333333	0
bin	231.64466666667	0
bin	231.678	0
statistic RandomGeometricGraph.rgnv[29] 	arrivalPerc:histogram
field count 1
field mean 1
field stddev nan
field sum 1
field sqrsum 1
field min 1
field max 1
attr interpolationmode  none
attr source  count(arrival)
attr title  "arrival perc, histogram"
bin	-INF	0
bin	0	0
bin	1	1
bin	2	0
statistic RandomGeometricGraph.rgnv[30] 	arrivalTime:histogram
field count 1
field mean 201.726
field stddev nan
field sum 201.726
field sqrsum 40693.379076
field min 201.726
field max 201.726
attr interpolationmode  none
attr source  arrivalTime
attr title  "arrival time, histogram"
bin	-INF	0
bin	201.226	0
bin	201.25933333333	0
bin	201.29266666667	0
bin	201.326	0
bin	201.35933333333	0
bin	201.39266666667	0
bin	201.426	0
bin	201.45933333333	0
bin	201.49266666667	0
bin	201.526	0
bin	201.55933333333	0
bin	201.59266666667	0
bin	201.626	0
bin	201.65933333333	0
bin	201.69266666667	0
bin	201.726	1
bin	201.75933333333	0
bin	201.79266666667	0
bin	201.826	0
bin	201.85933333333	0
bin	201.89266666667	0
bin	201.926	0
bin	201.95933333333	0
bin	201.99266666667	0
bin	202.026	0
bin	202.05933333333	0
bin	202.09266666667	0
bin	202.126	0
bin	202.15933333333	0
bin	202.19266666667	0
bin	202.226	0
statistic RandomGeometricGraph.rgnv[30] 	arrivalPerc:histogram
field count 1
field mean 1
field stddev nan
field sum 1
field sqrsum 1
field min 1
field max 1
attr interpolationmode  none
attr source  count(arrival)
attr title  "arrival perc, histogram"
bin	-INF	0
bin	0	0
bin	1	1
bin	2	0
statistic RandomGeometricGraph.rgnv[31] 	arrivalTime:histogram
field count 1
field mean 165.023
field stddev nan
field sum 165.023
field sqrsum 27232.590529
field min 165.023
field max 165.023
attr interpolationmode  none
attr source  arrivalTime
attr title  "arrival time, histogram"
bin	-INF	0
bin	164.523	0
bin	164.55633333333	0
bin	164.58966666667	0
bin	164.623	0
bin	164.65633333333	0
bin	164.68966666667	0
bin	164.723	0
bin	164.75633333333	0
bin	164.78966666667	0
bin	164.823	0
bin	164.85633333333	0
bin	164.88966666667	0
bin	164.923	0
bin	164.95633333333	0
bin	164.98966666667	0
bin	165.023	1
bin	165.05633333333	0
bin	165.08966666667	0
bin	165.123	0
bin	165.15633333333	0
bin	165.18966666667	0
bin	165.223	0
bin	165.25633333333	0
bin	165.28966666667	0
bin	165.323	0
bin	165.35633333333	0
bin	165.38966666667	0
bin	165.423	0
bin	165.45633333333	0
bin	165.48966666667	0
bin	165.523	0
statistic RandomGeometricGraph.rgnv[31] 	arrivalPerc:histogram
field count 1
field mean 1
field stddev nan
field sum 1
field sqrsum 1
field min 1
field max 1
attr interpolationmode  none
attr source  count(arrival)
attr title  "arrival perc, histogram"
bin	-INF	0
bin	0	0
bin	1	1
bin	2	0
statistic RandomGeometricGraph.rgnv[32] 	arrivalTime:histogram
field count 1
field mean 74.396
field stddev nan
field sum 74.396
field sqrsum 5534.764816
field min 74.396
field max 74.396
attr interpolationmode  none
attr source  arrivalTime
attr title  "arrival time, histogram"
bin	-INF	0
bin	73.896	0
bin	73.929333333333	0
bin	73.962666666667	0
bin	73.996	0
bin	74.029333333333	0
bin	74.062666666667	0
bin	74.096	0
bin	74.129333333333	0
bin	74.162666666667	0
bin	74.196	0
bin	74.229333333333	0
bin	74.262666666667	0
bin	74.296	0
bin	74.329333333333	0
bin	74.362666666667	0
bin	74.396	1
bin	74.429333333333	0
bin	74.462666666667	0
bin	74.496	0
bin	74.529333333333	0
bin	74.562666666667	0
bin	74.596	0
bin	74.629333333333	0
bin	74.662666666667	0
bin	74.696	0
bin	74.729333333333	0
bin	74.762666666667	0
bin	74.796	0
bin	74.829333333333	0
bin	74.862666666667	0
bin	74.896	0
statistic RandomGeometricGraph.rgnv[32] 	arrivalPerc:histogram
field count 1
field mean 1
field stddev nan
field sum 1
field sqrsum 1
field min 1
field max 1
attr interpolationmode  none
attr source  count(arrival)
attr title  "arrival perc, histogram"
bin	-INF	0
bin	0	0
bin	1	1
bin	2	0
statistic RandomGeometricGraph.rgnv[33] 	arrivalTime:histogram
field count 1
field mean 62.155
field stddev nan
field sum 62.155
field sqrsum 3863.244025
field min 62.155
field max 62.155
attr interpolationmode  none
attr source  arrivalTime
attr title  "arrival time, histogram"
bin	-INF	0
bin	61.655	0
bin	61.688333333333	0
bin	61.721666666667	0
bin	61.755	0
bin	61.788333333333	0
bin	61.821666666667	0
bin	61.855	0
bin	61.888333333333	0
bin	61.921666666667	0
bin	61.955	0
bin	61.988333333333	0
bin	62.021666666667	0
bin	62.055	0
bin	62.088333333333	0
bin	62.121666666667	0
bin	62.155	1
bin	62.188333333333	0
bin	62.221666666667	0
bin	62.255	0
bin	62.288333333333	0
bin	62.321666666667	0
bin	62.355	0
bin	62.388333333333	0
bin	62.421666666667	0
bin	62.455	0
bin	62.488333333333	0
bin	62.521666666667	0
bin	62.555	0
bin	62.588333333333	0
bin	62.621666666667	0
bin	62.655	0
statistic RandomGeometricGraph.rgnv[33] 	arrivalPerc:histogram
field count 1
field mean 1
field stddev nan
field sum 1
field sqrsum 1
field min 1
field max 1
attr interpolationmode  none
attr source  count(arrival)
attr title  "arrival perc, histogram"
bin	-INF	0
bin	0	0
bin	1	1
bin	2	0
statistic RandomGeometricGraph.rgnv[34] 	arrivalTime:histogram
field count 1
field mean 255.65
field stddev nan
field sum 255.65
field sqrsum 65356.9225
field min 255.65
field max 255.65
attr interpolationmode  none
attr source  arrivalTime
attr title  "arrival time, histogram"
bin	-INF	0
bin	255.15	0
bin	255.18333333333	0
bin	255.21666666667	0
bin	255.25	0
bin	255.28333333333	0
bin	255.31666666667	0
bin	255.35	0
bin	255.38333333333	0
bin	255.41666666667	0
bin	255.45	0
bin	255.48333333333	0
bin	255.51666666667	0
bin	255.55	0
bin	255.58333333333	0
bin	255.61666666667	0
bin	255.65	1
bin	255.68333333333	0
bin	255.71666666667	0
bin	255.75	0
bin	255.78333333333	0
bin	255.81666666667	0
bin	255.85	0
bin	255.88333333333	0
bin	255.91666666667	0
bin	255.95	0
bin	255.98333333333	0
bin	256.01666666667	0
bin	256.05	0
bin	256.08333333333	0
bin	256.11666666667	0
bin	256.15	0
statistic RandomGeometricGraph.rgnv[34] 	arrivalPerc:histogram
field count 1
field mean 1
field stddev nan
field sum 1
field sqrsum 1
field min 1
field max 1
attr interpolationmode  none
attr source  count(arrival)
attr title  "arrival perc, histogram"
bin	-INF	0
bin	0	0
bin	1	1
bin	2	0
statistic RandomGeometricGraph.rgnv[35] 	arrivalTime:histogram
field count 1
field mean 238.419
field stddev nan
field sum 238.419
field sqrsum 56843.619561
field min 238.419
field max 238.419
attr interpolationmode  none
attr source  arrivalTime
attr title  "arrival time, histogram"
bin	-INF	0
bin	237.919	0
bin	237.95233333333	0
bin	237.98566666667	0
bin	238.019	0
bin	238.05233333333	0
bin	238.08566666667	0
bin	238.119	0
bin	238.15233333333	0
bin	238.18566666667	0
bin	238.219	0
bin	238.25233333333	0
bin	238.28566666667	0
bin	238.319	0
bin	238.35233333333	0
bin	238.38566666667	0
bin	238.419	1
bin	238.45233333333	0
bin	238.48566666667	0
bin	238.519	0
bin	238.55233333333	0
bin	238.58566666667	0
bin	238.619	0
bin	238.65233333333	0
bin	238.68566666667	0
bin	238.719	0
bin	238.75233333333	0
bin	238.78566666667	0
bin	238.819	0
bin	238.85233333333	0
bin	238.88566666667	0
bin	238.919	0
statistic RandomGeometricGraph.rgnv[35] 	arrivalPerc:histogram
field count 1
field mean 1
field stddev nan
field sum 1
field sqrsum 1
field min 1
field max 1
attr interpolationmode  none
attr source  count(arrival)
attr title  "arrival perc, histogram"
bin	-INF	0
bin	0	0
bin	1	1
bin	2	0
statistic RandomGeometricGraph.rgnv[36] 	arrivalTime:histogram
field count 1
field mean 201.726
field stddev nan
field sum 201.726
field sqrsum 40693.379076
field min 201.726
field max 201.726
attr interpolationmode  none
attr source  arrivalTime
attr title  "arrival time, histogram"
bin	-INF	0
bin	201.226	0
bin	201.25933333333	0
bin	201.29266666667	0
bin	201.326	0
bin	201.35933333333	0
bin	201.39266666667	0
bin	201.426	0
bin	201.45933333333	0
bin	201.49266666667	0
bin	201.526	0
bin	201.55933333333	0
bin	201.59266666667	0
bin	201.626	0
bin	201.65933333333	0
bin	201.69266666667	0
bin	201.726	1
bin	201.75933333333	0
bin	201.79266666667	0
bin	201.826	0
bin	201.85933333333	0
bin	201.89266666667	0
bin	201.926	0
bin	201.95933333333	0
bin	201.99266666667	0
bin	202.026	0
bin	202.05933333333	0
bin	202.09266666667	0
bin	202.126	0
bin	202.15933333333	0
bin	202.19266666667	0
bin	202.226	0
statistic RandomGeometricGraph.rgnv[36] 	arrivalPerc:histogram
field count 1
field mean 1
field stddev nan
field sum 1
field sqrsum 1
field min 1
field max 1
attr interpolationmode  none
attr source  count(arrival)
attr title  "arrival perc, histogram"
bin	-INF	0
bin	0	0
bin	1	1
bin	2	0
statistic RandomGeometricGraph.rgnv[37] 	arrivalTime:histogram
field count 1
field mean 299.584
field stddev nan
field sum 299.584
field sqrsum 89750.573056
field min 299.584
field max 299.584
attr interpolationmode  none
attr source  arrivalTime
attr title  "arrival time, histogram"
bin	-INF	0
bin	299.084	0
bin	299.11733333333	0
bin	299.15066666667	0
bin	299.184	0
bin	299.21733333333	0
bin	299.25066666667	0
bin	299.284	0
bin	299.31733333333	0
bin	299.35066666667	0
bin	299.384	0
bin	299.41733333333	0
bin	299.45066666667	0
bin	299.484	0
bin	299.51733333333	0
bin	299.55066666667	0
bin	299.584	1
bin	299.61733333333	0
bin	299.65066666667	0
bin	299.684	0
bin	299.71733333333	0
bin	299.75066666667	0
bin	299.784	0
bin	299.81733333333	0
bin	299.85066666667	0
bin	299.884	0
bin	299.91733333333	0
bin	299.95066666667	0
bin	299.984	0
bin	300.01733333333	0
bin	300.05066666667	0
bin	300.084	0
statistic RandomGeometricGraph.rgnv[37] 	arrivalPerc:histogram
field count 1
field mean 1
field stddev nan
field sum 1
field sqrsum 1
field min 1
field max 1
attr interpolationmode  none
attr source  count(arrival)
attr title  "arrival perc, histogram"
bin	-INF	0
bin	0	0
bin	1	1
bin	2	0
statistic RandomGeometricGraph.rgnv[38] 	arrivalTime:histogram
field count 1
field mean 228.977
field stddev nan
field sum 228.977
field sqrsum 52430.466529
field min 228.977
field max 228.977
attr interpolationmode  none
attr source  arrivalTime
attr title  "arrival time, histogram"
bin	-INF	0
bin	228.477	0
bin	228.51033333333	0
bin	228.54366666667	0
bin	228.577	0
bin	228.61033333333	0
bin	228.64366666667	0
bin	228.677	0
bin	228.71033333333	0
bin	228.74366666667	0
bin	228.777	0
bin	228.81033333333	0
bin	228.84366666667	0
bin	228.877	0
bin	228.91033333333	0
bin	228.94366666667	0
bin	228.977	1
bin	229.01033333333	0
bin	229.04366666667	0
bin	229.077	0
bin	229.11033333333	0
bin	229.14366666667	0
bin	229.177	0
bin	229.21033333333	0
bin	229.24366666667	0
bin	229.277	0
bin	229.31033333333	0
bin	229.34366666667	0
bin	229.377	0
bin	229.41033333333	0
bin	229.44366666667	0
bin	229.477	0
statistic RandomGeometricGraph.rgnv[38] 	arrivalPerc:histogram
field count 1
field mean 1
field stddev nan
field sum 1
field sqrsum 1
field min 1
field max 1
attr interpolationmode  none
attr source  count(arrival)
attr title  "arrival perc, histogram"
bin	-INF	0
bin	0	0
bin	1	1
bin	2	0
statistic RandomGeometricGraph.rgnv[39] 	arrivalTime:histogram
field count 1
field mean 152.802
field stddev nan
field sum 152.802
field sqrsum 23348.451204
field min 152.802
field max 152.802
attr interpolationmode  none
attr source  arrivalTime
attr title  "arrival time, histogram"
bin	-INF	0
bin	152.302	0
bin	152.33533333333	0
bin	152.36866666667	0
bin	152.402	0
bin	152.43533333333	0
bin	152.46866666667	0
bin	152.502	0
bin	152.53533333333	0
bin	152.56866666667	0
bin	152.602	0
bin	152.63533333333	0
bin	152.66866666667	0
bin	152.702	0
bin	152.73533333333	0
bin	152.76866666667	0
bin	152.802	1
bin	152.83533333333	0
bin	152.86866666667	0
bin	152.902	0
bin	152.93533333333	0
bin	152.96866666667	0
bin	153.002	0
bin	153.03533333333	0
bin	153.06866666667	0
bin	153.102	0
bin	153.13533333333	0
bin	153.16866666667	0
bin	153.202	0
bin	153.23533333333	0
bin	153.26866666667	0
bin	153.302	0
statistic RandomGeometricGraph.rgnv[39] 	arrivalPerc:histogram
field count 1
field mean 1
field stddev nan
field sum 1
field sqrsum 1
field min 1
field max 1
attr interpolationmode  none
attr source  count(arrival)
attr title  "arrival perc, histogram"
bin	-INF	0
bin	0	0
bin	1	1
bin	2	0
statistic RandomGeometricGraph.rgnv[40] 	arrivalTime:histogram
field count 1
field mean 177.254
field stddev nan
field sum 177.254
field sqrsum 31418.980516
field min 177.254
field max 177.254
attr interpolationmode  none
attr source  arrivalTime
attr title  "arrival time, histogram"
bin	-INF	0
bin	176.754	0
bin	176.78733333333	0
bin	176.82066666667	0
bin	176.854	0
bin	176.88733333333	0
bin	176.92066666667	0
bin	176.954	0
bin	176.98733333333	0
bin	177.02066666667	0
bin	177.054	0
bin	177.08733333333	0
bin	177.12066666667	0
bin	177.154	0
bin	177.18733333333	0
bin	177.22066666667	0
bin	177.254	1
bin	177.28733333333	0
bin	177.32066666667	0
bin	177.354	0
bin	177.38733333333	0
bin	177.42066666667	0
bin	177.454	0
bin	177.48733333333	0
bin	177.52066666667	0
bin	177.554	0
bin	177.58733333333	0
bin	177.62066666667	0
bin	177.654	0
bin	177.68733333333	0
bin	177.72066666667	0
bin	177.754	0
statistic RandomGeometricGraph.rgnv[40] 	arrivalPerc:histogram
field count 1
field mean 1
field stddev nan
field sum 1
field sqrsum 1
field min 1
field max 1
attr interpolationmode  none
attr source  count(arrival)
attr title  "arrival perc, histogram"
bin	-INF	0
bin	0	0
bin	1	1
bin	2	0
statistic RandomGeometricGraph.rgnv[41] 	arrivalTime:histogram
field count 1
field mean 290.122
field stddev nan
field sum 290.122
field sqrsum 84170.774884
field min 290.122
field max 290.122
attr interpolationmode  none
attr source  arrivalTime
attr title  "arrival time, histogram"
bin	-INF	0
bin	289.622	0
bin	289.65533333333	0
bin	289.68866666667	0
bin	289.722	0
bin	289.75533333333	0
bin	289.78866666667	0
bin	289.822	0
bin	289.85533333333	0
bin	289.88866666667	0
bin	289.922	0
bin	289.95533333333	0
bin	289.98866666667	0
bin	290.022	0
bin	290.05533333333	0
bin	290.08866666667	0
bin	290.122	1
bin	290.15533333333	0
bin	290.18866666667	0
bin	290.222	0
bin	290.25533333333	0
bin	290.28866666667	0
bin	290.322	0
bin	290.35533333333	0
bin	290.38866666667	0
bin	290.422	0
bin	290.45533333333	0
bin	290.48866666667	0
bin	290.522	0
bin	290.55533333333	0
bin	290.58866666667	0
bin	290.622	0
statistic RandomGeometricGraph.rgnv[41] 	arrivalPerc:histogram
field count 1
field mean 1
field stddev nan
field sum 1
field sqrsum 1
field min 1
field max 1
attr interpolationmode  none
attr source  count(arrival)
attr title  "arrival perc, histogram"
bin	-INF	0
bin	0	0
bin	1	1
bin	2	0
statistic RandomGeometricGraph.rgnv[42] 	arrivalTime:histogram
field count 1
field mean 123.33
field stddev nan
field sum 123.33
field sqrsum 15210.2889
field min 123.33
field max 123.33
attr interpolationmode  none
attr source  arrivalTime
attr title  "arrival time, histogram"
bin	-INF	0
bin	122.83	0
bin	122.86333333333	0
bin	122.89666666667	0
bin	122.93	0
bin	122.96333333333	0
bin	122.99666666667	0
bin	123.03	0
bin	123.06333333333	0
bin	123.09666666667	0
bin	123.13	0
bin	123.16333333333	0
bin	123.19666666667	0
bin	123.23	0
bin	123.26333333333	0
bin	123.29666666667	0
bin	123.33	1
bin	123.36333333333	0
bin	123.39666666667	0
bin	123.43	0
bin	123.46333333333	0
bin	123.49666666667	0
bin	123.53	0
bin	123.56333333333	0
bin	123.59666666667	0
bin	123.63	0
bin	123.66333333333	0
bin	123.69666666667	0
bin	123.73	0
bin	123.76333333333	0
bin	123.79666666667	0
bin	123.83	0
statistic RandomGeometricGraph.rgnv[42] 	arrivalPerc:histogram
field count 1
field mean 1
field stddev nan
field sum 1
field sqrsum 1
field min 1
field max 1
attr interpolationmode  none
attr source  count(arrival)
attr title  "arrival perc, histogram"
bin	-INF	0
bin	0	0
bin	1	1
bin	2	0
statistic RandomGeometricGraph.rgnv[43] 	arrivalTime:histogram
field count 1
field mean 311.805
field stddev nan
field sum 311.805
field sqrsum 97222.358025
field min 311.805
field max 311.805
attr interpolationmode  none
attr source  arrivalTime
attr title  "arrival time, histogram"
bin	-INF	0
bin	311.305	0
bin	311.33833333333	0
bin	311.37166666667	0
bin	311.405	0
bin	311.43833333333	0
bin	311.47166666667	0
bin	311.505	0
bin	311.53833333333	0
bin	311.57166666667	0
bin	311.605	0
bin	311.63833333333	0
bin	311.67166666667	0
bin	311.705	0
bin	311.73833333333	0
bin	311.77166666667	0
bin	311.805	1
bin	311.83833333333	0
bin	311.87166666667	0
bin	311.905	0
bin	311.93833333333	0
bin	311.97166666667	0
bin	312.005	0
bin	312.03833333333	0
bin	312.07166666667	0
bin	312.105	0
bin	312.13833333333	0
bin	312.17166666667	0
bin	312.205	0
bin	312.23833333333	0
bin	312.27166666667	0
bin	312.305	0
statistic RandomGeometricGraph.rgnv[43] 	arrivalPerc:histogram
field count 1
field mean 1
field stddev nan
field sum 1
field sqrsum 1
field min 1
field max 1
attr interpolationmode  none
attr source  count(arrival)
attr title  "arrival perc, histogram"
bin	-INF	0
bin	0	0
bin	1	1
bin	2	0
statistic RandomGeometricGraph.rgnv[44] 	arrivalTime:histogram
field count 1
field mean 111.099
field stddev nan
field sum 111.099
field sqrsum 12342.987801
field min 111.099
field max 111.099
attr interpolationmode  none
attr source  arrivalTime
attr title  "arrival time, histogram"
bin	-INF	0
bin	110.599	0
bin	110.63233333333	0
bin	110.66566666667	0
bin	110.699	0
bin	110.73233333333	0
bin	110.76566666667	0
bin	110.799	0
bin	110.83233333333	0
bin	110.86566666667	0
bin	110.899	0
bin	110.93233333333	0
bin	110.96566666667	0
bin	110.999	0
bin	111.03233333333	0
bin	111.06566666667	0
bin	111.099	1
bin	111.13233333333	0
bin	111.16566666667	0
bin	111.199	0
bin	111.23233333333	0
bin	111.26566666667	0
bin	111.299	0
bin	111.33233333333	0
bin	111.36566666667	0
bin	111.399	0
bin	111.43233333333	0
bin	111.46566666667	0
bin	111.499	0
bin	111.53233333333	0
bin	111.56566666667	0
bin	111.599	0
statistic RandomGeometricGraph.rgnv[44] 	arrivalPerc:histogram
field count 1
field mean 1
field stddev nan
field sum 1
field sqrsum 1
field min 1
field max 1
attr interpolationmode  none
attr source  count(arrival)
attr title  "arrival perc, histogram"
bin	-INF	0
bin	0	0
bin	1	1
bin	2	0
statistic RandomGeometricGraph.rgnv[45] 	arrivalTime:histogram
field count 1
field mean 304.574
field stddev nan
field sum 304.574
field sqrsum 92765.321476
field min 304.574
field max 304.574
attr interpolationmode  none
attr source  arrivalTime
attr title  "arrival time, histogram"
bin	-INF	0
bin	304.074	0
bin	304.10733333333	0
bin	304.14066666667	0
bin	304.174	0
bin	304.20733333333	0
bin	304.24066666667	0
bin	304.274	0
bin	304.30733333333	0
bin	304.34066666667	0
bin	304.374	0
bin	304.40733333333	0
bin	304.44066666667	0
bin	304.474	0
bin	304.50733333333	0
bin	304.54066666667	0
bin	304.574	1
bin	304.60733333333	0
bin	304.64066666667	0
bin	304.674	0
bin	304.70733333333	0
bin	304.74066666667	0
bin	304.774	0
bin	304.80733333333	0
bin	304.84066666667	0
bin	304.874	0
bin	304.90733333333	0
bin	304.94066666667	0
bin	304.974	0
bin	305.00733333333	0
bin	305.04066666667	0
bin	305.074	0
statistic RandomGeometricGraph.rgnv[45] 	arrivalPerc:histogram
field count 1
field mean 1
field stddev nan
field sum 1
field sqrsum 1
field min 1
field max 1
attr interpolationmode  none
attr source  count(arrival)
attr title  "arrival perc, histogram"
bin	-INF	0
bin	0	0
bin	1	1
bin	2	0
statistic RandomGeometricGraph.rgnv[46] 	arrivalTime:histogram
field count 1
field mean 121.099
field stddev nan
field sum 121.099
field sqrsum 14664.967801
field min 121.099
field max 121.099
attr interpolationmode  none
attr source  arrivalTime
attr title  "arrival time, histogram"
bin	-INF	0
bin	120.599	0
bin	120.63233333333	0
bin	120.66566666667	0
bin	120.699	0
bin	120.73233333333	0
bin	120.76566666667	0
bin	120.799	0
bin	120.83233333333	0
bin	120.86566666667	0
bin	120.899	0
bin	120.93233333333	0
bin	120.96566666667	0
bin	120.999	0
bin	121.03233333333	0
bin	121.06566666667	0
bin	121.099	1
bin	121.13233333333	0
bin	121.16566666667	0
bin	121.199	0
bin	121.23233333333	0
bin	121.26566666667	0
bin	121.299	0
bin	121.33233333333	0
bin	121.36566666667	0
bin	121.399	0
bin	121.43233333333	0
bin	121.46566666667	0
bin	121.499	0
bin	121.53233333333	0
bin	121.56566666667	0
bin	121.599	0
statistic RandomGeometricGraph.rgnv[46] 	arrivalPerc:histogram
field count 1
field mean 1
field stddev nan
field sum 1
field sqrsum 1
field min 1
field max 1
attr interpolationmode  none
attr source  count(arrival)
attr title  "arrival perc, histogram"
bin	-INF	0
bin	0	0
bin	1	1
bin	2	0
statistic RandomGeometricGraph.rgnv[47] 	arrivalTime:histogram
field count 0
field mean nan
field stddev nan
field sum 0
field sqrsum 0
field min nan
field max nan
attr interpolationmode  none
attr source  arrivalTime
attr title  "arrival time, histogram"
bin	-INF	0
bin	-0.5	0
bin	-0.46666666666667	0
bin	-0.43333333333333	0
bin	-0.4	0
bin	-0.36666666666667	0
bin	-0.33333333333333	0
bin	-0.3	0
bin	-0.26666666666667	0
bin	-0.23333333333333	0
bin	-0.2	0
bin	-0.16666666666667	0
bin	-0.13333333333333	0
bin	-0.1	0
bin	-0.066666666666667	0
bin	-0.033333333333333	0
bin	0	0
bin	0.033333333333333	0
bin	0.066666666666667	0
bin	0.1	0
bin	0.13333333333333	0
bin	0.16666666666667	0
bin	0.2	0
bin	0.23333333333333	0
bin	0.26666666666667	0
bin	0.3	0
bin	0.33333333333333	0
bin	0.36666666666667	0
bin	0.4	0
bin	0.43333333333333	0
bin	0.46666666666667	0
bin	0.5	0
statistic RandomGeometricGraph.rgnv[47] 	arrivalPerc:histogram
field count 0
field mean nan
field stddev nan
field sum 0
field sqrsum 0
field min nan
field max nan
attr interpolationmode  none
attr source  count(arrival)
attr title  "arrival perc, histogram"
bin	-INF	0
bin	-0.5	0
bin	-0.46666666666667	0
bin	-0.43333333333333	0
bin	-0.4	0
bin	-0.36666666666667	0
bin	-0.33333333333333	0
bin	-0.3	0
bin	-0.26666666666667	0
bin	-0.23333333333333	0
bin	-0.2	0
bin	-0.16666666666667	0
bin	-0.13333333333333	0
bin	-0.1	0
bin	-0.066666666666667	0
bin	-0.033333333333333	0
bin	0	0
bin	0.033333333333333	0
bin	0.066666666666667	0
bin	0.1	0
bin	0.13333333333333	0
bin	0.16666666666667	0
bin	0.2	0
bin	0.23333333333333	0
bin	0.26666666666667	0
bin	0.3	0
bin	0.33333333333333	0
bin	0.36666666666667	0
bin	0.4	0
bin	0.43333333333333	0
bin	0.46666666666667	0
bin	0.5	0
statistic RandomGeometricGraph.rgnv[48] 	arrivalTime:histogram
field count 1
field mean 177.264
field stddev nan
field sum 177.264
field sqrsum 31422.525696
field min 177.264
field max 177.264
attr interpolationmode  none
attr source  arrivalTime
attr title  "arrival time, histogram"
bin	-INF	0
bin	176.764	0
bin	176.79733333333	0
bin	176.83066666667	0
bin	176.864	0
bin	176.89733333333	0
bin	176.93066666667	0
bin	176.964	0
bin	176.99733333333	0
bin	177.03066666667	0
bin	177.064	0
bin	177.09733333333	0
bin	177.13066666667	0
bin	177.164	0
bin	177.19733333333	0
bin	177.23066666667	0
bin	177.264	1
bin	177.29733333333	0
bin	177.33066666667	0
bin	177.364	0
bin	177.39733333333	0
bin	177.43066666667	0
bin	177.464	0
bin	177.49733333333	0
bin	177.53066666667	0
bin	177.564	0
bin	177.59733333333	0
bin	177.63066666667	0
bin	177.664	0
bin	177.69733333333	0
bin	177.73066666667	0
bin	177.764	0
statistic RandomGeometricGraph.rgnv[48] 	arrivalPerc:histogram
field count 1
field mean 1
field stddev nan
field sum 1
field sqrsum 1
field min 1
field max 1
attr interpolationmode  none
attr source  count(arrival)
attr title  "arrival perc, histogram"
bin	-INF	0
bin	0	0
bin	1	1
bin	2	0
statistic RandomGeometricGraph.rgnv[49] 	arrivalTime:histogram
field count 1
field mean 306.815
field stddev nan
field sum 306.815
field sqrsum 94135.444225
field min 306.815
field max 306.815
attr interpolationmode  none
attr source  arrivalTime
attr title  "arrival time, histogram"
bin	-INF	0
bin	306.315	0
bin	306.34833333333	0
bin	306.38166666667	0
bin	306.415	0
bin	306.44833333333	0
bin	306.48166666667	0
bin	306.515	0
bin	306.54833333333	0
bin	306.58166666667	0
bin	306.615	0
bin	306.64833333333	0
bin	306.68166666667	0
bin	306.715	0
bin	306.74833333333	0
bin	306.78166666667	0
bin	306.815	1
bin	306.84833333333	0
bin	306.88166666667	0
bin	306.915	0
bin	306.94833333333	0
bin	306.98166666667	0
bin	307.015	0
bin	307.04833333333	0
bin	307.08166666667	0
bin	307.115	0
bin	307.14833333333	0
bin	307.18166666667	0
bin	307.215	0
bin	307.24833333333	0
bin	307.28166666667	0
bin	307.315	0
statistic RandomGeometricGraph.rgnv[49] 	arrivalPerc:histogram
field count 1
field mean 1
field stddev nan
field sum 1
field sqrsum 1
field min 1
field max 1
attr interpolationmode  none
attr source  count(arrival)
attr title  "arrival perc, histogram"
bin	-INF	0
bin	0	0
bin	1	1
bin	2	0
statistic RandomGeometricGraph.rgnv[50] 	arrivalTime:histogram
field count 1
field mean 103.868
field stddev nan
field sum 103.868
field sqrsum 10788.561424
field min 103.868
field max 103.868
attr interpolationmode  none
attr source  arrivalTime
attr title  "arrival time, histogram"
bin	-INF	0
bin	103.368	0
bin	103.40133333333	0
bin	103.43466666667	0
bin	103.468	0
bin	103.50133333333	0
bin	103.53466666667	0
bin	103.568	0
bin	103.60133333333	0
bin	103.63466666667	0
bin	103.668	0
bin	103.70133333333	0
bin	103.73466666667	0
bin	103.768	0
bin	103.80133333333	0
bin	103.83466666667	0
bin	103.868	1
bin	103.90133333333	0
bin	103.93466666667	0
bin	103.968	0
bin	104.00133333333	0
bin	104.03466666667	0
bin	104.068	0
bin	104.10133333333	0
bin	104.13466666667	0
bin	104.168	0
bin	104.20133333333	0
bin	104.23466666667	0
bin	104.268	0
bin	104.30133333333	0
bin	104.33466666667	0
bin	104.368	0
statistic RandomGeometricGraph.rgnv[50] 	arrivalPerc:histogram
field count 1
field mean 1
field stddev nan
field sum 1
field sqrsum 1
field min 1
field max 1
attr interpolationmode  none
attr source  count(arrival)
attr title  "arrival perc, histogram"
bin	-INF	0
bin	0	0
bin	1	1
bin	2	0
statistic RandomGeometricGraph.rgnv[51] 	arrivalTime:histogram
field count 1
field mean 189.495
field stddev nan
field sum 189.495
field sqrsum 35908.355025
field min 189.495
field max 189.495
attr interpolationmode  none
attr source  arrivalTime
attr title  "arrival time, histogram"
bin	-INF	0
bin	188.995	0
bin	189.02833333333	0
bin	189.06166666667	0
bin	189.095	0
bin	189.12833333333	0
bin	189.16166666667	0
bin	189.195	0
bin	189.22833333333	0
bin	189.26166666667	0
bin	189.295	0
bin	189.32833333333	0
bin	189.36166666667	0
bin	189.395	0
bin	189.42833333333	0
bin	189.46166666667	0
bin	189.495	1
bin	189.52833333333	0
bin	189.56166666667	0
bin	189.595	0
bin	189.62833333333	0
bin	189.66166666667	0
bin	189.695	0
bin	189.72833333333	0
bin	189.76166666667	0
bin	189.795	0
bin	189.82833333333	0
bin	189.86166666667	0
bin	189.895	0
bin	189.92833333333	0
bin	189.96166666667	0
bin	189.995	0
statistic RandomGeometricGraph.rgnv[51] 	arrivalPerc:histogram
field count 1
field mean 1
field stddev nan
field sum 1
field sqrsum 1
field min 1
field max 1
attr interpolationmode  none
attr source  count(arrival)
attr title  "arrival perc, histogram"
bin	-INF	0
bin	0	0
bin	1	1
bin	2	0
statistic RandomGeometricGraph.rgnv[52] 	arrivalTime:histogram
field count 1
field mean 123.33
field stddev nan
field sum 123.33
field sqrsum 15210.2889
field min 123.33
field max 123.33
attr interpolationmode  none
attr source  arrivalTime
attr title  "arrival time, histogram"
bin	-INF	0
bin	122.83	0
bin	122.86333333333	0
bin	122.89666666667	0
bin	122.93	0
bin	122.96333333333	0
bin	122.99666666667	0
bin	123.03	0
bin	123.06333333333	0
bin	123.09666666667	0
bin	123.13	0
bin	123.16333333333	0
bin	123.19666666667	0
bin	123.23	0
bin	123.26333333333	0
bin	123.29666666667	0
bin	123.33	1
bin	123.36333333333	0
bin	123.39666666667	0
bin	123.43	0
bin	123.46333333333	0
bin	123.49666666667	0
bin	123.53	0
bin	123.56333333333	0
bin	123.59666666667	0
bin	123.63	0
bin	123.66333333333	0
bin	123.69666666667	0
bin	123.73	0
bin	123.76333333333	0
bin	123.79666666667	0
bin	123.83	0
statistic RandomGeometricGraph.rgnv[52] 	arrivalPerc:histogram
field count 1
field mean 1
field stddev nan
field sum 1
field sqrsum 1
field min 1
field max 1
attr interpolationmode  none
attr source  count(arrival)
attr title  "arrival perc, histogram"
bin	-INF	0
bin	0	0
bin	1	1
bin	2	0
statistic RandomGeometricGraph.rgnv[53] 	arrivalTime:histogram
field count 1
field mean 128.34
field stddev nan
field sum 128.34
field sqrsum 16471.1556
field min 128.34
field max 128.34
attr interpolationmode  none
attr source  arrivalTime
attr title  "arrival time, histogram"
bin	-INF	0
bin	127.84	0
bin	127.87333333333	0
bin	127.90666666667	0
bin	127.94	0
bin	127.97333333333	0
bin	128.00666666667	0
bin	128.04	0
bin	128.07333333333	0
bin	128.10666666667	0
bin	128.14	0
bin	128.17333333333	0
bin	128.20666666667	0
bin	128.24	0
bin	128.27333333333	0
bin	128.30666666667	0
bin	128.34	1
bin	128.37333333333	0
bin	128.40666666667	0
bin	128.44	0
bin	128.47333333333	0
bin	128.50666666667	0
bin	128.54	0
bin	128.57333333333	0
bin	128.60666666667	0
bin	128.64	0
bin	128.67333333333	0
bin	128.70666666667	0
bin	128.74	0
bin	128.77333333333	0
bin	128.80666666667	0
bin	128.84	0
statistic RandomGeometricGraph.rgnv[53] 	arrivalPerc:histogram
field count 1
field mean 1
field stddev nan
field sum 1
field sqrsum 1
field min 1
field max 1
attr interpolationmode  none
attr source  count(arrival)
attr title  "arrival perc, histogram"
bin	-INF	0
bin	0	0
bin	1	1
bin	2	0
statistic RandomGeometricGraph.rgnv[54] 	arrivalTime:histogram
field count 1
field mean 194.505
field stddev nan
field sum 194.505
field sqrsum 37832.195025
field min 194.505
field max 194.505
attr interpolationmode  none
attr source  arrivalTime
attr title  "arrival time, histogram"
bin	-INF	0
bin	194.005	0
bin	194.03833333333	0
bin	194.07166666667	0
bin	194.105	0
bin	194.13833333333	0
bin	194.17166666667	0
bin	194.205	0
bin	194.23833333333	0
bin	194.27166666667	0
bin	194.305	0
bin	194.33833333333	0
bin	194.37166666667	0
bin	194.405	0
bin	194.43833333333	0
bin	194.47166666667	0
bin	194.505	1
bin	194.53833333333	0
bin	194.57166666667	0
bin	194.605	0
bin	194.63833333333	0
bin	194.67166666667	0
bin	194.705	0
bin	194.73833333333	0
bin	194.77166666667	0
bin	194.805	0
bin	194.83833333333	0
bin	194.87166666667	0
bin	194.905	0
bin	194.93833333333	0
bin	194.97166666667	0
bin	195.005	0
statistic RandomGeometricGraph.rgnv[54] 	arrivalPerc:histogram
field count 1
field mean 1
field stddev nan
field sum 1
field sqrsum 1
field min 1
field max 1
attr interpolationmode  none
attr source  count(arrival)
attr title  "arrival perc, histogram"
bin	-INF	0
bin	0	0
bin	1	1
bin	2	0
statistic RandomGeometricGraph.rgnv[55] 	arrivalTime:histogram
field count 1
field mean 329.056
field stddev nan
field sum 329.056
field sqrsum 108277.851136
field min 329.056
field max 329.056
attr interpolationmode  none
attr source  arrivalTime
attr title  "arrival time, histogram"
bin	-INF	0
bin	328.556	0
bin	328.58933333333	0
bin	328.62266666667	0
bin	328.656	0
bin	328.68933333333	0
bin	328.72266666667	0
bin	328.756	0
bin	328.78933333333	0
bin	328.82266666667	0
bin	328.856	0
bin	328.88933333333	0
bin	328.92266666667	0
bin	328.956	0
bin	328.98933333333	0
bin	329.02266666667	0
bin	329.056	1
bin	329.08933333333	0
bin	329.12266666667	0
bin	329.156	0
bin	329.18933333333	0
bin	329.22266666667	0
bin	329.256	0
bin	329.28933333333	0
bin	329.32266666667	0
bin	329.356	0
bin	329.38933333333	0
bin	329.42266666667	0
bin	329.456	0
bin	329.48933333333	0
bin	329.52266666667	0
bin	329.556	0
statistic RandomGeometricGraph.rgnv[55] 	arrivalPerc:histogram
field count 1
field mean 1
field stddev nan
field sum 1
field sqrsum 1
field min 1
field max 1
attr interpolationmode  none
attr source  count(arrival)
attr title  "arrival perc, histogram"
bin	-INF	0
bin	0	0
bin	1	1
bin	2	0
statistic RandomGeometricGraph.rgnv[56] 	arrivalTime:histogram
field count 0
field mean nan
field stddev nan
field sum 0
field sqrsum 0
field min nan
field max nan
attr interpolationmode  none
attr source  arrivalTime
attr title  "arrival time, histogram"
bin	-INF	0
bin	-0.5	0
bin	-0.46666666666667	0
bin	-0.43333333333333	0
bin	-0.4	0
bin	-0.36666666666667	0
bin	-0.33333333333333	0
bin	-0.3	0
bin	-0.26666666666667	0
bin	-0.23333333333333	0
bin	-0.2	0
bin	-0.16666666666667	0
bin	-0.13333333333333	0
bin	-0.1	0
bin	-0.066666666666667	0
bin	-0.033333333333333	0
bin	0	0
bin	0.033333333333333	0
bin	0.066666666666667	0
bin	0.1	0
bin	0.13333333333333	0
bin	0.16666666666667	0
bin	0.2	0
bin	0.23333333333333	0
bin	0.26666666666667	0
bin	0.3	0
bin	0.33333333333333	0
bin	0.36666666666667	0
bin	0.4	0
bin	0.43333333333333	0
bin	0.46666666666667	0
bin	0.5	0
statistic RandomGeometricGraph.rgnv[56] 	arrivalPerc:histogram
field count 0
field mean nan
field stddev nan
field sum 0
field sqrsum 0
field min nan
field max nan
attr interpolationmode  none
attr source  count(arrival)
attr title  "arrival perc, histogram"
bin	-INF	0
bin	-0.5	0
bin	-0.46666666666667	0
bin	-0.43333333333333	0
bin	-0.4	0
bin	-0.36666666666667	0
bin	-0.33333333333333	0
bin	-0.3	0
bin	-0.26666666666667	0
bin	-0.23333333333333	0
bin	-0.2	0
bin	-0.16666666666667	0
bin	-0.13333333333333	0
bin	-0.1	0
bin	-0.066666666666667	0
bin	-0.033333333333333	0
bin	0	0
bin	0.033333333333333	0
bin	0.066666666666667	0
bin	0.1	0
bin	0.13333333333333	0
bin	0.16666666666667	0
bin	0.2	0
bin	0.23333333333333	0
bin	0.26666666666667	0
bin	0.3	0
bin	0.33333333333333	0
bin	0.36666666666667	0
bin	0.4	0
bin	0.43333333333333	0
bin	0.46666666666667	0
bin	0.5	0
statistic RandomGeometricGraph.rgnv[57] 	arrivalTime:histogram
field count 1
field mean 265.69
field stddev nan
field sum 265.69
field sqrsum 70591.1761
field min 265.69
field max 265.69
attr interpolationmode  none
attr source  arrivalTime
attr title  "arrival time, histogram"
bin	-INF	0
bin	265.19	0
bin	265.22333333333	0
bin	265.25666666667	0
bin	265.29	0
bin	265.32333333333	0
bin	265.35666666667	0
bin	265.39	0
bin	265.42333333333	0
bin	265.45666666667	0
bin	265.49	0
bin	265.52333333333	0
bin	265.55666666667	0
bin	265.59	0
bin	265.62333333333	0
bin	265.65666666667	0
bin	265.69	1
bin	265.72333333333	0
bin	265.75666666667	0
bin	265.79	0
bin	265.82333333333	0
bin	265.85666666667	0
bin	265.89	0
bin	265.92333333333	0
bin	265.95666666667	0
bin	265.99	0
bin	266.02333333333	0
bin	266.05666666667	0
bin	266.09	0
bin	266.12333333333	0
bin	266.15666666667	0
bin	266.19	0
statistic RandomGeometricGraph.rgnv[57] 	arrivalPerc:histogram
field count 1
field mean 1
field stddev nan
field sum 1
field sqrsum 1
field min 1
field max 1
attr interpolationmode  none
attr source  count(arrival)
attr title  "arrival perc, histogram"
bin	-INF	0
bin	0	0
bin	1	1
bin	2	0
statistic RandomGeometricGraph.rgnv[58] 	arrivalTime:histogram
field count 1
field mean 98.858
field stddev nan
field sum 98.858
field sqrsum 9772.904164
field min 98.858
field max 98.858
attr interpolationmode  none
attr source  arrivalTime
attr title  "arrival time, histogram"
bin	-INF	0
bin	98.358	0
bin	98.391333333333	0
bin	98.424666666667	0
bin	98.458	0
bin	98.491333333333	0
bin	98.524666666667	0
bin	98.558	0
bin	98.591333333333	0
bin	98.624666666667	0
bin	98.658	0
bin	98.691333333333	0
bin	98.724666666667	0
bin	98.758	0
bin	98.791333333333	0
bin	98.824666666667	0
bin	98.858	1
bin	98.891333333333	0
bin	98.924666666667	0
bin	98.958	0
bin	98.991333333333	0
bin	99.024666666667	0
bin	99.058	0
bin	99.091333333333	0
bin	99.124666666667	0
bin	99.158	0
bin	99.191333333333	0
bin	99.224666666667	0
bin	99.258	0
bin	99.291333333333	0
bin	99.324666666667	0
bin	99.358	0
statistic RandomGeometricGraph.rgnv[58] 	arrivalPerc:histogram
field count 1
field mean 1
field stddev nan
field sum 1
field sqrsum 1
field min 1
field max 1
attr interpolationmode  none
attr source  count(arrival)
attr title  "arrival perc, histogram"
bin	-INF	0
bin	0	0
bin	1	1
bin	2	0
statistic RandomGeometricGraph.rgnv[59] 	arrivalTime:histogram
field count 1
field mean 365.759
field stddev nan
field sum 365.759
field sqrsum 133779.646081
field min 365.759
field max 365.759
attr interpolationmode  none
attr source  arrivalTime
attr title  "arrival time, histogram"
bin	-INF	0
bin	365.259	0
bin	365.29233333333	0
bin	365.32566666667	0
bin	365.359	0
bin	365.39233333333	0
bin	365.42566666667	0
bin	365.459	0
bin	365.49233333333	0
bin	365.52566666667	0
bin	365.559	0
bin	365.59233333333	0
bin	365.62566666667	0
bin	365.659	0
bin	365.69233333333	0
bin	365.72566666667	0
bin	365.759	1
bin	365.79233333333	0
bin	365.82566666667	0
bin	365.859	0
bin	365.89233333333	0
bin	365.92566666667	0
bin	365.959	0
bin	365.99233333333	0
bin	366.02566666667	0
bin	366.059	0
bin	366.09233333333	0
bin	366.12566666667	0
bin	366.159	0
bin	366.19233333333	0
bin	366.22566666667	0
bin	366.259	0
statistic RandomGeometricGraph.rgnv[59] 	arrivalPerc:histogram
field count 1
field mean 1
field stddev nan
field sum 1
field sqrsum 1
field min 1
field max 1
attr interpolationmode  none
attr source  count(arrival)
attr title  "arrival perc, histogram"
bin	-INF	0
bin	0	0
bin	1	1
bin	2	0
statistic RandomGeometricGraph.rgnv[60] 	arrivalTime:histogram
field count 1
field mean 170.043
field stddev nan
field sum 170.043
field sqrsum 28914.621849
field min 170.043
field max 170.043
attr interpolationmode  none
attr source  arrivalTime
attr title  "arrival time, histogram"
bin	-INF	0
bin	169.543	0
bin	169.57633333333	0
bin	169.60966666667	0
bin	169.643	0
bin	169.67633333333	0
bin	169.70966666667	0
bin	169.743	0
bin	169.77633333333	0
bin	169.80966666667	0
bin	169.843	0
bin	169.87633333333	0
bin	169.90966666667	0
bin	169.943	0
bin	169.97633333333	0
bin	170.00966666667	0
bin	170.043	1
bin	170.07633333333	0
bin	170.10966666667	0
bin	170.143	0
bin	170.17633333333	0
bin	170.20966666667	0
bin	170.243	0
bin	170.27633333333	0
bin	170.30966666667	0
bin	170.343	0
bin	170.37633333333	0
bin	170.40966666667	0
bin	170.443	0
bin	170.47633333333	0
bin	170.50966666667	0
bin	170.543	0
statistic RandomGeometricGraph.rgnv[60] 	arrivalPerc:histogram
field count 1
field mean 1
field stddev nan
field sum 1
field sqrsum 1
field min 1
field max 1
attr interpolationmode  none
attr source  count(arrival)
attr title  "arrival perc, histogram"
bin	-INF	0
bin	0	0
bin	1	1
bin	2	0
statistic RandomGeometricGraph.rgnv[61] 	arrivalTime:histogram
field count 1
field mean 280.112
field stddev nan
field sum 280.112
field sqrsum 78462.732544
field min 280.112
field max 280.112
attr interpolationmode  none
attr source  arrivalTime
attr title  "arrival time, histogram"
bin	-INF	0
bin	279.612	0
bin	279.64533333333	0
bin	279.67866666667	0
bin	279.712	0
bin	279.74533333333	0
bin	279.77866666667	0
bin	279.812	0
bin	279.84533333333	0
bin	279.87866666667	0
bin	279.912	0
bin	279.94533333333	0
bin	279.97866666667	0
bin	280.012	0
bin	280.04533333333	0
bin	280.07866666667	0
bin	280.112	1
bin	280.14533333333	0
bin	280.17866666667	0
bin	280.212	0
bin	280.24533333333	0
bin	280.27866666667	0
bin	280.312	0
bin	280.34533333333	0
bin	280.37866666667	0
bin	280.412	0
bin	280.44533333333	0
bin	280.47866666667	0
bin	280.512	0
bin	280.54533333333	0
bin	280.57866666667	0
bin	280.612	0
statistic RandomGeometricGraph.rgnv[61] 	arrivalPerc:histogram
field count 1
field mean 1
field stddev nan
field sum 1
field sqrsum 1
field min 1
field max 1
attr interpolationmode  none
attr source  count(arrival)
attr title  "arrival perc, histogram"
bin	-INF	0
bin	0	0
bin	1	1
bin	2	0
statistic RandomGeometricGraph.rgnv[62] 	arrivalTime:histogram
field count 1
field mean 37.693
field stddev nan
field sum 37.693
field sqrsum 1420.762249
field min 37.693
field max 37.693
attr interpolationmode  none
attr source  arrivalTime
attr title  "arrival time, histogram"
bin	-INF	0
bin	37.193	0
bin	37.226333333333	0
bin	37.259666666667	0
bin	37.293	0
bin	37.326333333333	0
bin	37.359666666667	0
bin	37.393	0
bin	37.426333333333	0
bin	37.459666666667	0
bin	37.493	0
bin	37.526333333333	0
bin	37.559666666667	0
bin	37.593	0
bin	37.626333333333	0
bin	37.659666666667	0
bin	37.693	1
bin	37.726333333333	0
bin	37.759666666667	0
bin	37.793	0
bin	37.826333333333	0
bin	37.859666666667	0
bin	37.893	0
bin	37.926333333333	0
bin	37.959666666667	0
bin	37.993	0
bin	38.026333333333	0
bin	38.059666666667	0
bin	38.093	0
bin	38.126333333333	0
bin	38.159666666667	0
bin	38.193	0
statistic RandomGeometricGraph.rgnv[62] 	arrivalPerc:histogram
field count 1
field mean 1
field stddev nan
field sum 1
field sqrsum 1
field min 1
field max 1
attr interpolationmode  none
attr source  count(arrival)
attr title  "arrival perc, histogram"
bin	-INF	0
bin	0	0
bin	1	1
bin	2	0
statistic RandomGeometricGraph.rgnv[63] 	arrivalTime:histogram
field count 1
field mean 128.34
field stddev nan
field sum 128.34
field sqrsum 16471.1556
field min 128.34
field max 128.34
attr interpolationmode  none
attr source  arrivalTime
attr title  "arrival time, histogram"
bin	-INF	0
bin	127.84	0
bin	127.87333333333	0
bin	127.90666666667	0
bin	127.94	0
bin	127.97333333333	0
bin	128.00666666667	0
bin	128.04	0
bin	128.07333333333	0
bin	128.10666666667	0
bin	128.14	0
bin	128.17333333333	0
bin	128.20666666667	0
bin	128.24	0
bin	128.27333333333	0
bin	128.30666666667	0
bin	128.34	1
bin	128.37333333333	0
bin	128.40666666667	0
bin	128.44	0
bin	128.47333333333	0
bin	128.50666666667	0
bin	128.54	0
bin	128.57333333333	0
bin	128.60666666667	0
bin	128.64	0
bin	128.67333333333	0
bin	128.70666666667	0
bin	128.74	0
bin	128.77333333333	0
bin	128.80666666667	0
bin	128.84	0
statistic RandomGeometricGraph.rgnv[63] 	arrivalPerc:histogram
field count 1
field mean 1
field stddev nan
field sum 1
field sqrsum 1
field min 1
field max 1
attr interpolationmode  none
attr source  count(arrival)
attr title  "arrival perc, histogram"
bin	-INF	0
bin	0	0
bin	1	1
bin	2	0
statistic RandomGeometricGraph.rgnv[64] 	arrivalTime:histogram
field count 1
field mean 255.66
field stddev nan
field sum 255.66
field sqrsum 65362.0356
field min 255.66
field max 255.66
attr interpolationmode  none
attr source  arrivalTime
attr title  "arrival time, histogram"
bin	-INF	0
bin	255.16	0
bin	255.19333333333	0
bin	255.22666666667	0
bin	255.26	0
bin	255.29333333333	0
bin	255.32666666667	0
bin	255.36	0
bin	255.39333333333	0
bin	255.42666666667	0
bin	255.46	0
bin	255.49333333333	0
bin	255.52666666667	0
bin	255.56	0
bin	255.59333333333	0
bin	255.62666666667	0
bin	255.66	1
bin	255.69333333333	0
bin	255.72666666667	0
bin	255.76	0
bin	255.79333333333	0
bin	255.82666666667	0
bin	255.86	0
bin	255.89333333333	0
bin	255.92666666667	0
bin	255.96	0
bin	255.99333333333	0
bin	256.02666666667	0
bin	256.06	0
bin	256.09333333333	0
bin	256.12666666667	0
bin	256.16	0
statistic RandomGeometricGraph.rgnv[64] 	arrivalPerc:histogram
field count 1
field mean 1
field stddev nan
field sum 1
field sqrsum 1
field min 1
field max 1
attr interpolationmode  none
[...]
field count 1
field mean 262.871
field stddev nan
field sum 262.871
field sqrsum 69101.162641
field min 262.871
field max 262.871
attr interpolationmode  none
attr source  arrivalTime
attr title  "arrival time, histogram"
bin	-INF	0
bin	262.371	0
bin	262.40433333333	0
bin	262.43766666667	0
bin	262.471	0
bin	262.50433333333	0
bin	262.53766666667	0
bin	262.571	0
bin	262.60433333333	0
bin	262.63766666667	0
bin	262.671	0
bin	262.70433333333	0
bin	262.73766666667	0
bin	262.771	0
bin	262.80433333333	0
bin	262.83766666667	0
bin	262.871	1
bin	262.90433333333	0
bin	262.93766666667	0
bin	262.971	0
bin	263.00433333333	0
bin	263.03766666667	0
bin	263.071	0
bin	263.10433333333	0
bin	263.13766666667	0
bin	263.171	0
bin	263.20433333333	0
bin	263.23766666667	0
bin	263.271	0
bin	263.30433333333	0
bin	263.33766666667	0
bin	263.371	0
statistic RandomGeometricGraph.rgnv[483] 	arrivalPerc:histogram
field count 1
field mean 1
field stddev nan
field sum 1
field sqrsum 1
field min 1
field max 1
attr interpolationmode  none
attr source  count(arrival)
attr title  "arrival perc, histogram"
bin	-INF	0
bin	0	0
bin	1	1
bin	2	0
statistic RandomGeometricGraph.rgnv[484] 	arrivalTime:histogram
field count 1
field mean 294.564
field stddev nan
field sum 294.564
field sqrsum 86767.950096
field min 294.564
field max 294.564
attr interpolationmode  none
attr source  arrivalTime
attr title  "arrival time, histogram"
bin	-INF	0
bin	294.064	0
bin	294.09733333333	0
bin	294.13066666667	0
bin	294.164	0
bin	294.19733333333	0
bin	294.23066666667	0
bin	294.264	0
bin	294.29733333333	0
bin	294.33066666667	0
bin	294.364	0
bin	294.39733333333	0
bin	294.43066666667	0
bin	294.464	0
bin	294.49733333333	0
bin	294.53066666667	0
bin	294.564	1
bin	294.59733333333	0
bin	294.63066666667	0
bin	294.664	0
bin	294.69733333333	0
bin	294.73066666667	0
bin	294.764	0
bin	294.79733333333	0
bin	294.83066666667	0
bin	294.864	0
bin	294.89733333333	0
bin	294.93066666667	0
bin	294.964	0
bin	294.99733333333	0
bin	295.03066666667	0
bin	295.064	0
statistic RandomGeometricGraph.rgnv[484] 	arrivalPerc:histogram
field count 1
field mean 1
field stddev nan
field sum 1
field sqrsum 1
field min 1
field max 1
attr interpolationmode  none
attr source  count(arrival)
attr title  "arrival perc, histogram"
bin	-INF	0
bin	0	0
bin	1	1
bin	2	0
statistic RandomGeometricGraph.rgnv[485] 	arrivalTime:histogram
field count 1
field mean 206.736
field stddev nan
field sum 206.736
field sqrsum 42739.773696
field min 206.736
field max 206.736
attr interpolationmode  none
attr source  arrivalTime
attr title  "arrival time, histogram"
bin	-INF	0
bin	206.236	0
bin	206.26933333333	0
bin	206.30266666667	0
bin	206.336	0
bin	206.36933333333	0
bin	206.40266666667	0
bin	206.436	0
bin	206.46933333333	0
bin	206.50266666667	0
bin	206.536	0
bin	206.56933333333	0
bin	206.60266666667	0
bin	206.636	0
bin	206.66933333333	0
bin	206.70266666667	0
bin	206.736	1
bin	206.76933333333	0
bin	206.80266666667	0
bin	206.836	0
bin	206.86933333333	0
bin	206.90266666667	0
bin	206.936	0
bin	206.96933333333	0
bin	207.00266666667	0
bin	207.036	0
bin	207.06933333333	0
bin	207.10266666667	0
bin	207.136	0
bin	207.16933333333	0
bin	207.20266666667	0
bin	207.236	0
statistic RandomGeometricGraph.rgnv[485] 	arrivalPerc:histogram
field count 1
field mean 1
field stddev nan
field sum 1
field sqrsum 1
field min 1
field max 1
attr interpolationmode  none
attr source  count(arrival)
attr title  "arrival perc, histogram"
bin	-INF	0
bin	0	0
bin	1	1
bin	2	0
statistic RandomGeometricGraph.rgnv[486] 	arrivalTime:histogram
field count 1
field mean 165.033
field stddev nan
field sum 165.033
field sqrsum 27235.891089
field min 165.033
field max 165.033
attr interpolationmode  none
attr source  arrivalTime
attr title  "arrival time, histogram"
bin	-INF	0
bin	164.533	0
bin	164.56633333333	0
bin	164.59966666667	0
bin	164.633	0
bin	164.66633333333	0
bin	164.69966666667	0
bin	164.733	0
bin	164.76633333333	0
bin	164.79966666667	0
bin	164.833	0
bin	164.86633333333	0
bin	164.89966666667	0
bin	164.933	0
bin	164.96633333333	0
bin	164.99966666667	0
bin	165.033	1
bin	165.06633333333	0
bin	165.09966666667	0
bin	165.133	0
bin	165.16633333333	0
bin	165.19966666667	0
bin	165.233	0
bin	165.26633333333	0
bin	165.29966666667	0
bin	165.333	0
bin	165.36633333333	0
bin	165.39966666667	0
bin	165.433	0
bin	165.46633333333	0
bin	165.49966666667	0
bin	165.533	0
statistic RandomGeometricGraph.rgnv[486] 	arrivalPerc:histogram
field count 1
field mean 1
field stddev nan
field sum 1
field sqrsum 1
field min 1
field max 1
attr interpolationmode  none
attr source  count(arrival)
attr title  "arrival perc, histogram"
bin	-INF	0
bin	0	0
bin	1	1
bin	2	0
statistic RandomGeometricGraph.rgnv[487] 	arrivalTime:histogram
field count 1
field mean 280.112
field stddev nan
field sum 280.112
field sqrsum 78462.732544
field min 280.112
field max 280.112
attr interpolationmode  none
attr source  arrivalTime
attr title  "arrival time, histogram"
bin	-INF	0
bin	279.612	0
bin	279.64533333333	0
bin	279.67866666667	0
bin	279.712	0
bin	279.74533333333	0
bin	279.77866666667	0
bin	279.812	0
bin	279.84533333333	0
bin	279.87866666667	0
bin	279.912	0
bin	279.94533333333	0
bin	279.97866666667	0
bin	280.012	0
bin	280.04533333333	0
bin	280.07866666667	0
bin	280.112	1
bin	280.14533333333	0
bin	280.17866666667	0
bin	280.212	0
bin	280.24533333333	0
bin	280.27866666667	0
bin	280.312	0
bin	280.34533333333	0
bin	280.37866666667	0
bin	280.412	0
bin	280.44533333333	0
bin	280.47866666667	0
bin	280.512	0
bin	280.54533333333	0
bin	280.57866666667	0
bin	280.612	0
statistic RandomGeometricGraph.rgnv[487] 	arrivalPerc:histogram
field count 1
field mean 1
field stddev nan
field sum 1
field sqrsum 1
field min 1
field max 1
attr interpolationmode  none
attr source  count(arrival)
attr title  "arrival perc, histogram"
bin	-INF	0
bin	0	0
bin	1	1
bin	2	0
statistic RandomGeometricGraph.rgnv[488] 	arrivalTime:histogram
field count 1
field mean 248.439
field stddev nan
field sum 248.439
field sqrsum 61721.936721
field min 248.439
field max 248.439
attr interpolationmode  none
attr source  arrivalTime
attr title  "arrival time, histogram"
bin	-INF	0
bin	247.939	0
bin	247.97233333333	0
bin	248.00566666667	0
bin	248.039	0
bin	248.07233333333	0
bin	248.10566666667	0
bin	248.139	0
bin	248.17233333333	0
bin	248.20566666667	0
bin	248.239	0
bin	248.27233333333	0
bin	248.30566666667	0
bin	248.339	0
bin	248.37233333333	0
bin	248.40566666667	0
bin	248.439	1
bin	248.47233333333	0
bin	248.50566666667	0
bin	248.539	0
bin	248.57233333333	0
bin	248.60566666667	0
bin	248.639	0
bin	248.67233333333	0
bin	248.70566666667	0
bin	248.739	0
bin	248.77233333333	0
bin	248.80566666667	0
bin	248.839	0
bin	248.87233333333	0
bin	248.90566666667	0
bin	248.939	0
statistic RandomGeometricGraph.rgnv[488] 	arrivalPerc:histogram
field count 1
field mean 1
field stddev nan
field sum 1
field sqrsum 1
field min 1
field max 1
attr interpolationmode  none
attr source  count(arrival)
attr title  "arrival perc, histogram"
bin	-INF	0
bin	0	0
bin	1	1
bin	2	0
statistic RandomGeometricGraph.rgnv[489] 	arrivalTime:histogram
field count 1
field mean 201.726
field stddev nan
field sum 201.726
field sqrsum 40693.379076
field min 201.726
field max 201.726
attr interpolationmode  none
attr source  arrivalTime
attr title  "arrival time, histogram"
bin	-INF	0
bin	201.226	0
bin	201.25933333333	0
bin	201.29266666667	0
bin	201.326	0
bin	201.35933333333	0
bin	201.39266666667	0
bin	201.426	0
bin	201.45933333333	0
bin	201.49266666667	0
bin	201.526	0
bin	201.55933333333	0
bin	201.59266666667	0
bin	201.626	0
bin	201.65933333333	0
bin	201.69266666667	0
bin	201.726	1
bin	201.75933333333	0
bin	201.79266666667	0
bin	201.826	0
bin	201.85933333333	0
bin	201.89266666667	0
bin	201.926	0
bin	201.95933333333	0
bin	201.99266666667	0
bin	202.026	0
bin	202.05933333333	0
bin	202.09266666667	0
bin	202.126	0
bin	202.15933333333	0
bin	202.19266666667	0
bin	202.226	0
statistic RandomGeometricGraph.rgnv[489] 	arrivalPerc:histogram
field count 1
field mean 1
field stddev nan
field sum 1
field sqrsum 1
field min 1
field max 1
attr interpolationmode  none
attr source  count(arrival)
attr title  "arrival perc, histogram"
bin	-INF	0
bin	0	0
bin	1	1
bin	2	0
statistic RandomGeometricGraph.rgnv[490] 	arrivalTime:histogram
field count 1
field mean 248.429
field stddev nan
field sum 248.429
field sqrsum 61716.968041
field min 248.429
field max 248.429
attr interpolationmode  none
attr source  arrivalTime
attr title  "arrival time, histogram"
bin	-INF	0
bin	247.929	0
bin	247.96233333333	0
bin	247.99566666667	0
bin	248.029	0
bin	248.06233333333	0
bin	248.09566666667	0
bin	248.129	0
bin	248.16233333333	0
bin	248.19566666667	0
bin	248.229	0
bin	248.26233333333	0
bin	248.29566666667	0
bin	248.329	0
bin	248.36233333333	0
bin	248.39566666667	0
bin	248.429	1
bin	248.46233333333	0
bin	248.49566666667	0
bin	248.529	0
bin	248.56233333333	0
bin	248.59566666667	0
bin	248.629	0
bin	248.66233333333	0
bin	248.69566666667	0
bin	248.729	0
bin	248.76233333333	0
bin	248.79566666667	0
bin	248.829	0
bin	248.86233333333	0
bin	248.89566666667	0
bin	248.929	0
statistic RandomGeometricGraph.rgnv[490] 	arrivalPerc:histogram
field count 1
field mean 1
field stddev nan
field sum 1
field sqrsum 1
field min 1
field max 1
attr interpolationmode  none
attr source  count(arrival)
attr title  "arrival perc, histogram"
bin	-INF	0
bin	0	0
bin	1	1
bin	2	0
statistic RandomGeometricGraph.rgnv[491] 	arrivalTime:histogram
field count 1
field mean 133.35
field stddev nan
field sum 133.35
field sqrsum 17782.2225
field min 133.35
field max 133.35
attr interpolationmode  none
attr source  arrivalTime
attr title  "arrival time, histogram"
bin	-INF	0
bin	132.85	0
bin	132.88333333333	0
bin	132.91666666667	0
bin	132.95	0
bin	132.98333333333	0
bin	133.01666666667	0
bin	133.05	0
bin	133.08333333333	0
bin	133.11666666667	0
bin	133.15	0
bin	133.18333333333	0
bin	133.21666666667	0
bin	133.25	0
bin	133.28333333333	0
bin	133.31666666667	0
bin	133.35	1
bin	133.38333333333	0
bin	133.41666666667	0
bin	133.45	0
bin	133.48333333333	0
bin	133.51666666667	0
bin	133.55	0
bin	133.58333333333	0
bin	133.61666666667	0
bin	133.65	0
bin	133.68333333333	0
bin	133.71666666667	0
bin	133.75	0
bin	133.78333333333	0
bin	133.81666666667	0
bin	133.85	0
statistic RandomGeometricGraph.rgnv[491] 	arrivalPerc:histogram
field count 1
field mean 1
field stddev nan
field sum 1
field sqrsum 1
field min 1
field max 1
attr interpolationmode  none
attr source  count(arrival)
attr title  "arrival perc, histogram"
bin	-INF	0
bin	0	0
bin	1	1
bin	2	0
statistic RandomGeometricGraph.rgnv[492] 	arrivalTime:histogram
field count 1
field mean 306.795
field stddev nan
field sum 306.795
field sqrsum 94123.172025
field min 306.795
field max 306.795
attr interpolationmode  none
attr source  arrivalTime
attr title  "arrival time, histogram"
bin	-INF	0
bin	306.295	0
bin	306.32833333333	0
bin	306.36166666667	0
bin	306.395	0
bin	306.42833333333	0
bin	306.46166666667	0
bin	306.495	0
bin	306.52833333333	0
bin	306.56166666667	0
bin	306.595	0
bin	306.62833333333	0
bin	306.66166666667	0
bin	306.695	0
bin	306.72833333333	0
bin	306.76166666667	0
bin	306.795	1
bin	306.82833333333	0
bin	306.86166666667	0
bin	306.895	0
bin	306.92833333333	0
bin	306.96166666667	0
bin	306.995	0
bin	307.02833333333	0
bin	307.06166666667	0
bin	307.095	0
bin	307.12833333333	0
bin	307.16166666667	0
bin	307.195	0
bin	307.22833333333	0
bin	307.26166666667	0
bin	307.295	0
statistic RandomGeometricGraph.rgnv[492] 	arrivalPerc:histogram
field count 1
field mean 1
field stddev nan
field sum 1
field sqrsum 1
field min 1
field max 1
attr interpolationmode  none
attr source  count(arrival)
attr title  "arrival perc, histogram"
bin	-INF	0
bin	0	0
bin	1	1
bin	2	0
statistic RandomGeometricGraph.rgnv[493] 	arrivalTime:histogram
field count 1
field mean 319.026
field stddev nan
field sum 319.026
field sqrsum 101777.588676
field min 319.026
field max 319.026
attr interpolationmode  none
attr source  arrivalTime
attr title  "arrival time, histogram"
bin	-INF	0
bin	318.526	0
bin	318.55933333333	0
bin	318.59266666667	0
bin	318.626	0
bin	318.65933333333	0
bin	318.69266666667	0
bin	318.726	0
bin	318.75933333333	0
bin	318.79266666667	0
bin	318.826	0
bin	318.85933333333	0
bin	318.89266666667	0
bin	318.926	0
bin	318.95933333333	0
bin	318.99266666667	0
bin	319.026	1
bin	319.05933333333	0
bin	319.09266666667	0
bin	319.126	0
bin	319.15933333333	0
bin	319.19266666667	0
bin	319.226	0
bin	319.25933333333	0
bin	319.29266666667	0
bin	319.326	0
bin	319.35933333333	0
bin	319.39266666667	0
bin	319.426	0
bin	319.45933333333	0
bin	319.49266666667	0
bin	319.526	0
statistic RandomGeometricGraph.rgnv[493] 	arrivalPerc:histogram
field count 1
field mean 1
field stddev nan
field sum 1
field sqrsum 1
field min 1
field max 1
attr interpolationmode  none
attr source  count(arrival)
attr title  "arrival perc, histogram"
bin	-INF	0
bin	0	0
bin	1	1
bin	2	0
statistic RandomGeometricGraph.rgnv[494] 	arrivalTime:histogram
field count 1
field mean 175.043
field stddev nan
field sum 175.043
field sqrsum 30640.051849
field min 175.043
field max 175.043
attr interpolationmode  none
attr source  arrivalTime
attr title  "arrival time, histogram"
bin	-INF	0
bin	174.543	0
bin	174.57633333333	0
bin	174.60966666667	0
bin	174.643	0
bin	174.67633333333	0
bin	174.70966666667	0
bin	174.743	0
bin	174.77633333333	0
bin	174.80966666667	0
bin	174.843	0
bin	174.87633333333	0
bin	174.90966666667	0
bin	174.943	0
bin	174.97633333333	0
bin	175.00966666667	0
bin	175.043	1
bin	175.07633333333	0
bin	175.10966666667	0
bin	175.143	0
bin	175.17633333333	0
bin	175.20966666667	0
bin	175.243	0
bin	175.27633333333	0
bin	175.30966666667	0
bin	175.343	0
bin	175.37633333333	0
bin	175.40966666667	0
bin	175.443	0
bin	175.47633333333	0
bin	175.50966666667	0
bin	175.543	0
statistic RandomGeometricGraph.rgnv[494] 	arrivalPerc:histogram
field count 1
field mean 1
field stddev nan
field sum 1
field sqrsum 1
field min 1
field max 1
attr interpolationmode  none
attr source  count(arrival)
attr title  "arrival perc, histogram"
bin	-INF	0
bin	0	0
bin	1	1
bin	2	0
statistic RandomGeometricGraph.rgnv[495] 	arrivalTime:histogram
field count 1
field mean 285.112
field stddev nan
field sum 285.112
field sqrsum 81288.852544
field min 285.112
field max 285.112
attr interpolationmode  none
attr source  arrivalTime
attr title  "arrival time, histogram"
bin	-INF	0
bin	284.612	0
bin	284.64533333333	0
bin	284.67866666667	0
bin	284.712	0
bin	284.74533333333	0
bin	284.77866666667	0
bin	284.812	0
bin	284.84533333333	0
bin	284.87866666667	0
bin	284.912	0
bin	284.94533333333	0
bin	284.97866666667	0
bin	285.012	0
bin	285.04533333333	0
bin	285.07866666667	0
bin	285.112	1
bin	285.14533333333	0
bin	285.17866666667	0
bin	285.212	0
bin	285.24533333333	0
bin	285.27866666667	0
bin	285.312	0
bin	285.34533333333	0
bin	285.37866666667	0
bin	285.412	0
bin	285.44533333333	0
bin	285.47866666667	0
bin	285.512	0
bin	285.54533333333	0
bin	285.57866666667	0
bin	285.612	0
statistic RandomGeometricGraph.rgnv[495] 	arrivalPerc:histogram
field count 1
field mean 1
field stddev nan
field sum 1
field sqrsum 1
field min 1
field max 1
attr interpolationmode  none
attr source  count(arrival)
attr title  "arrival perc, histogram"
bin	-INF	0
bin	0	0
bin	1	1
bin	2	0
statistic RandomGeometricGraph.rgnv[496] 	arrivalTime:histogram
field count 1
field mean 324.026
field stddev nan
field sum 324.026
field sqrsum 104992.848676
field min 324.026
field max 324.026
attr interpolationmode  none
attr source  arrivalTime
attr title  "arrival time, histogram"
bin	-INF	0
bin	323.526	0
bin	323.55933333333	0
bin	323.59266666667	0
bin	323.626	0
bin	323.65933333333	0
bin	323.69266666667	0
bin	323.726	0
bin	323.75933333333	0
bin	323.79266666667	0
bin	323.826	0
bin	323.85933333333	0
bin	323.89266666667	0
bin	323.926	0
bin	323.95933333333	0
bin	323.99266666667	0
bin	324.026	1
bin	324.05933333333	0
bin	324.09266666667	0
bin	324.126	0
bin	324.15933333333	0
bin	324.19266666667	0
bin	324.226	0
bin	324.25933333333	0
bin	324.29266666667	0
bin	324.326	0
bin	324.35933333333	0
bin	324.39266666667	0
bin	324.426	0
bin	324.45933333333	0
bin	324.49266666667	0
bin	324.526	0
statistic RandomGeometricGraph.rgnv[496] 	arrivalPerc:histogram
field count 1
field mean 1
field stddev nan
field sum 1
field sqrsum 1
field min 1
field max 1
attr interpolationmode  none
attr source  count(arrival)
attr title  "arrival perc, histogram"
bin	-INF	0
bin	0	0
bin	1	1
bin	2	0
statistic RandomGeometricGraph.rgnv[497] 	arrivalTime:histogram
field count 1
field mean 160.013
field stddev nan
field sum 160.013
field sqrsum 25604.160169
field min 160.013
field max 160.013
attr interpolationmode  none
attr source  arrivalTime
attr title  "arrival time, histogram"
bin	-INF	0
bin	159.513	0
bin	159.54633333333	0
bin	159.57966666667	0
bin	159.613	0
bin	159.64633333333	0
bin	159.67966666667	0
bin	159.713	0
bin	159.74633333333	0
bin	159.77966666667	0
bin	159.813	0
bin	159.84633333333	0
bin	159.87966666667	0
bin	159.913	0
bin	159.94633333333	0
bin	159.97966666667	0
bin	160.013	1
bin	160.04633333333	0
bin	160.07966666667	0
bin	160.113	0
bin	160.14633333333	0
bin	160.17966666667	0
bin	160.213	0
bin	160.24633333333	0
bin	160.27966666667	0
bin	160.313	0
bin	160.34633333333	0
bin	160.37966666667	0
bin	160.413	0
bin	160.44633333333	0
bin	160.47966666667	0
bin	160.513	0
statistic RandomGeometricGraph.rgnv[497] 	arrivalPerc:histogram
field count 1
field mean 1
field stddev nan
field sum 1
field sqrsum 1
field min 1
field max 1
attr interpolationmode  none
attr source  count(arrival)
attr title  "arrival perc, histogram"
bin	-INF	0
bin	0	0
bin	1	1
bin	2	0
statistic RandomGeometricGraph.rgnv[498] 	arrivalTime:histogram
field count 1
field mean 196.716
field stddev nan
field sum 196.716
field sqrsum 38697.184656
field min 196.716
field max 196.716
attr interpolationmode  none
attr source  arrivalTime
attr title  "arrival time, histogram"
bin	-INF	0
bin	196.216	0
bin	196.24933333333	0
bin	196.28266666667	0
bin	196.316	0
bin	196.34933333333	0
bin	196.38266666667	0
bin	196.416	0
bin	196.44933333333	0
bin	196.48266666667	0
bin	196.516	0
bin	196.54933333333	0
bin	196.58266666667	0
bin	196.616	0
bin	196.64933333333	0
bin	196.68266666667	0
bin	196.716	1
bin	196.74933333333	0
bin	196.78266666667	0
bin	196.816	0
bin	196.84933333333	0
bin	196.88266666667	0
bin	196.916	0
bin	196.94933333333	0
bin	196.98266666667	0
bin	197.016	0
bin	197.04933333333	0
bin	197.08266666667	0
bin	197.116	0
bin	197.14933333333	0
bin	197.18266666667	0
bin	197.216	0
statistic RandomGeometricGraph.rgnv[498] 	arrivalPerc:histogram
field count 1
field mean 1
field stddev nan
field sum 1
field sqrsum 1
field min 1
field max 1
attr interpolationmode  none
attr source  count(arrival)
attr title  "arrival perc, histogram"
bin	-INF	0
bin	0	0
bin	1	1
bin	2	0
statistic RandomGeometricGraph.rgnv[499] 	arrivalTime:histogram
field count 1
field mean 257.871
field stddev nan
field sum 257.871
field sqrsum 66497.452641
field min 257.871
field max 257.871
attr interpolationmode  none
attr source  arrivalTime
attr title  "arrival time, histogram"
bin	-INF	0
bin	257.371	0
bin	257.40433333333	0
bin	257.43766666667	0
bin	257.471	0
bin	257.50433333333	0
bin	257.53766666667	0
bin	257.571	0
bin	257.60433333333	0
bin	257.63766666667	0
bin	257.671	0
bin	257.70433333333	0
bin	257.73766666667	0
bin	257.771	0
bin	257.80433333333	0
bin	257.83766666667	0
bin	257.871	1
bin	257.90433333333	0
bin	257.93766666667	0
bin	257.971	0
bin	258.00433333333	0
bin	258.03766666667	0
bin	258.071	0
bin	258.10433333333	0
bin	258.13766666667	0
bin	258.171	0
bin	258.20433333333	0
bin	258.23766666667	0
bin	258.271	0
bin	258.30433333333	0
bin	258.33766666667	0
bin	258.371	0
statistic RandomGeometricGraph.rgnv[499] 	arrivalPerc:histogram
field count 1
field mean 1
field stddev nan
field sum 1
field sqrsum 1
field min 1
field max 1
attr interpolationmode  none
attr source  count(arrival)
attr title  "arrival perc, histogram"
bin	-INF	0
bin	0	0
bin	1	1
bin	2	0
