version 2
run rgg100-2-20170110-15:42:14-5748
attr configname rgg100
attr datetime 20170110-15:42:14
attr experiment rgg100
attr inifile iniFile/D002/omnetpp_15D002.ini
attr iterationvars ""
attr iterationvars2 $repetition=2
attr measurement ""
attr network blegossipprj.net.randomgeometricgraph.RandomGeometricGraph
attr processid 5748
attr repetition 2
attr replication #2
attr resultdir ../../results/D002/r15D002
attr runnumber 2
attr seedset 2
param RandomGeometricGraph.netSize 100
param RandomGeometricGraph.radius 15
param RandomGeometricGraph.rgnv[*].areaLength 70
param RandomGeometricGraph.rgnv[*].areaWidth 70

statistic RandomGeometricGraph.sc 	arrivalPercentage
field count 100
field mean 1
field stddev 0
field sum 100
field sqrsum 100
field min 1
field max 1
attr type  int
bin	-INF	0
bin	0	0
bin	1	100
bin	2	0
statistic RandomGeometricGraph.sc 	arrivalTime
field count 100
field mean 78.01304
field stddev 22.19396886267
field sum 7801.304
field sqrsum 657368.094138
field min 0
field max 116.099
bin	-INF	0
bin	-58.0495	0
bin	-50.309566666667	0
bin	-42.569633333333	0
bin	-34.8297	0
bin	-27.089766666667	0
bin	-19.349833333333	0
bin	-11.6099	0
bin	-3.8699666666667	1
bin	3.8699666666667	0
bin	11.6099	1
bin	19.349833333333	2
bin	27.089766666667	0
bin	34.8297	4
bin	42.569633333333	7
bin	50.309566666667	1
bin	58.0495	9
bin	65.789433333333	6
bin	73.529366666667	20
bin	81.2693	13
bin	89.009233333333	17
bin	96.749166666667	15
bin	104.4891	3
bin	112.22903333333	1
bin	119.96896666667	0
bin	127.7089	0
bin	135.44883333333	0
bin	143.18876666667	0
bin	150.9287	0
bin	158.66863333333	0
bin	166.40856666667	0
bin	174.1485	0
statistic RandomGeometricGraph.rgnv[0] 	arrivalTime:histogram
field count 1
field mean 86.647
field stddev nan
field sum 86.647
field sqrsum 7507.702609
field min 86.647
field max 86.647
attr interpolationmode  none
attr source  arrivalTime
attr title  "arrival time, histogram"
bin	-INF	0
bin	86.147	0
bin	86.180333333333	0
bin	86.213666666667	0
bin	86.247	0
bin	86.280333333333	0
bin	86.313666666667	0
bin	86.347	0
bin	86.380333333333	0
bin	86.413666666667	0
bin	86.447	0
bin	86.480333333333	0
bin	86.513666666667	0
bin	86.547	0
bin	86.580333333333	0
bin	86.613666666667	0
bin	86.647	1
bin	86.680333333333	0
bin	86.713666666667	0
bin	86.747	0
bin	86.780333333333	0
bin	86.813666666667	0
bin	86.847	0
bin	86.880333333333	0
bin	86.913666666667	0
bin	86.947	0
bin	86.980333333333	0
bin	87.013666666667	0
bin	87.047	0
bin	87.080333333333	0
bin	87.113666666667	0
bin	87.147	0
statistic RandomGeometricGraph.rgnv[0] 	arrivalPerc:histogram
field count 1
field mean 1
field stddev nan
field sum 1
field sqrsum 1
field min 1
field max 1
attr interpolationmode  none
attr source  count(arrival)
attr title  "arrival perc, histogram"
bin	-INF	0
bin	0	0
bin	1	1
bin	2	0
statistic RandomGeometricGraph.rgnv[1] 	arrivalTime:histogram
field count 1
field mean 74.406
field stddev nan
field sum 74.406
field sqrsum 5536.252836
field min 74.406
field max 74.406
attr interpolationmode  none
attr source  arrivalTime
attr title  "arrival time, histogram"
bin	-INF	0
bin	73.906	0
bin	73.939333333333	0
bin	73.972666666667	0
bin	74.006	0
bin	74.039333333333	0
bin	74.072666666667	0
bin	74.106	0
bin	74.139333333333	0
bin	74.172666666667	0
bin	74.206	0
bin	74.239333333333	0
bin	74.272666666667	0
bin	74.306	0
bin	74.339333333333	0
bin	74.372666666667	0
bin	74.406	1
bin	74.439333333333	0
bin	74.472666666667	0
bin	74.506	0
bin	74.539333333333	0
bin	74.572666666667	0
bin	74.606	0
bin	74.639333333333	0
bin	74.672666666667	0
bin	74.706	0
bin	74.739333333333	0
bin	74.772666666667	0
bin	74.806	0
bin	74.839333333333	0
bin	74.872666666667	0
bin	74.906	0
statistic RandomGeometricGraph.rgnv[1] 	arrivalPerc:histogram
field count 1
field mean 1
field stddev nan
field sum 1
field sqrsum 1
field min 1
field max 1
attr interpolationmode  none
attr source  count(arrival)
attr title  "arrival perc, histogram"
bin	-INF	0
bin	0	0
bin	1	1
bin	2	0
statistic RandomGeometricGraph.rgnv[2] 	arrivalTime:histogram
field count 1
field mean 86.627
field stddev nan
field sum 86.627
field sqrsum 7504.237129
field min 86.627
field max 86.627
attr interpolationmode  none
attr source  arrivalTime
attr title  "arrival time, histogram"
bin	-INF	0
bin	86.127	0
bin	86.160333333333	0
bin	86.193666666667	0
bin	86.227	0
bin	86.260333333333	0
bin	86.293666666667	0
bin	86.327	0
bin	86.360333333333	0
bin	86.393666666667	0
bin	86.427	0
bin	86.460333333333	0
bin	86.493666666667	0
bin	86.527	0
bin	86.560333333333	0
bin	86.593666666667	0
bin	86.627	1
bin	86.660333333333	0
bin	86.693666666667	0
bin	86.727	0
bin	86.760333333333	0
bin	86.793666666667	0
bin	86.827	0
bin	86.860333333333	0
bin	86.893666666667	0
bin	86.927	0
bin	86.960333333333	0
bin	86.993666666667	0
bin	87.027	0
bin	87.060333333333	0
bin	87.093666666667	0
bin	87.127	0
statistic RandomGeometricGraph.rgnv[2] 	arrivalPerc:histogram
field count 1
field mean 1
field stddev nan
field sum 1
field sqrsum 1
field min 1
field max 1
attr interpolationmode  none
attr source  count(arrival)
attr title  "arrival perc, histogram"
bin	-INF	0
bin	0	0
bin	1	1
bin	2	0
statistic RandomGeometricGraph.rgnv[3] 	arrivalTime:histogram
field count 1
field mean 54.954
field stddev nan
field sum 54.954
field sqrsum 3019.942116
field min 54.954
field max 54.954
attr interpolationmode  none
attr source  arrivalTime
attr title  "arrival time, histogram"
bin	-INF	0
bin	54.454	0
bin	54.487333333333	0
bin	54.520666666667	0
bin	54.554	0
bin	54.587333333333	0
bin	54.620666666667	0
bin	54.654	0
bin	54.687333333333	0
bin	54.720666666667	0
bin	54.754	0
bin	54.787333333333	0
bin	54.820666666667	0
bin	54.854	0
bin	54.887333333333	0
bin	54.920666666667	0
bin	54.954	1
bin	54.987333333333	0
bin	55.020666666667	0
bin	55.054	0
bin	55.087333333333	0
bin	55.120666666667	0
bin	55.154	0
bin	55.187333333333	0
bin	55.220666666667	0
bin	55.254	0
bin	55.287333333333	0
bin	55.320666666667	0
bin	55.354	0
bin	55.387333333333	0
bin	55.420666666667	0
bin	55.454	0
statistic RandomGeometricGraph.rgnv[3] 	arrivalPerc:histogram
field count 1
field mean 1
field stddev nan
field sum 1
field sqrsum 1
field min 1
field max 1
attr interpolationmode  none
attr source  count(arrival)
attr title  "arrival perc, histogram"
bin	-INF	0
bin	0	0
bin	1	1
bin	2	0
statistic RandomGeometricGraph.rgnv[4] 	arrivalTime:histogram
field count 1
field mean 67.185
field stddev nan
field sum 67.185
field sqrsum 4513.824225
field min 67.185
field max 67.185
attr interpolationmode  none
attr source  arrivalTime
attr title  "arrival time, histogram"
bin	-INF	0
bin	66.685	0
bin	66.718333333333	0
bin	66.751666666667	0
bin	66.785	0
bin	66.818333333333	0
bin	66.851666666667	0
bin	66.885	0
bin	66.918333333333	0
bin	66.951666666667	0
bin	66.985	0
bin	67.018333333333	0
bin	67.051666666667	0
bin	67.085	0
bin	67.118333333333	0
bin	67.151666666667	0
bin	67.185	1
bin	67.218333333333	0
bin	67.251666666667	0
bin	67.285	0
bin	67.318333333333	0
bin	67.351666666667	0
bin	67.385	0
bin	67.418333333333	0
bin	67.451666666667	0
bin	67.485	0
bin	67.518333333333	0
bin	67.551666666667	0
bin	67.585	0
bin	67.618333333333	0
bin	67.651666666667	0
bin	67.685	0
statistic RandomGeometricGraph.rgnv[4] 	arrivalPerc:histogram
field count 1
field mean 1
field stddev nan
field sum 1
field sqrsum 1
field min 1
field max 1
attr interpolationmode  none
attr source  count(arrival)
attr title  "arrival perc, histogram"
bin	-INF	0
bin	0	0
bin	1	1
bin	2	0
statistic RandomGeometricGraph.rgnv[5] 	arrivalTime:histogram
field count 1
field mean 79.416
field stddev nan
field sum 79.416
field sqrsum 6306.901056
field min 79.416
field max 79.416
attr interpolationmode  none
attr source  arrivalTime
attr title  "arrival time, histogram"
bin	-INF	0
bin	78.916	0
bin	78.949333333333	0
bin	78.982666666667	0
bin	79.016	0
bin	79.049333333333	0
bin	79.082666666667	0
bin	79.116	0
bin	79.149333333333	0
bin	79.182666666667	0
bin	79.216	0
bin	79.249333333333	0
bin	79.282666666667	0
bin	79.316	0
bin	79.349333333333	0
bin	79.382666666667	0
bin	79.416	1
bin	79.449333333333	0
bin	79.482666666667	0
bin	79.516	0
bin	79.549333333333	0
bin	79.582666666667	0
bin	79.616	0
bin	79.649333333333	0
bin	79.682666666667	0
bin	79.716	0
bin	79.749333333333	0
bin	79.782666666667	0
bin	79.816	0
bin	79.849333333333	0
bin	79.882666666667	0
bin	79.916	0
statistic RandomGeometricGraph.rgnv[5] 	arrivalPerc:histogram
field count 1
field mean 1
field stddev nan
field sum 1
field sqrsum 1
field min 1
field max 1
attr interpolationmode  none
attr source  count(arrival)
attr title  "arrival perc, histogram"
bin	-INF	0
bin	0	0
bin	1	1
bin	2	0
statistic RandomGeometricGraph.rgnv[6] 	arrivalTime:histogram
field count 1
field mean 49.934
field stddev nan
field sum 49.934
field sqrsum 2493.404356
field min 49.934
field max 49.934
attr interpolationmode  none
attr source  arrivalTime
attr title  "arrival time, histogram"
bin	-INF	0
bin	49.434	0
bin	49.467333333333	0
bin	49.500666666667	0
bin	49.534	0
bin	49.567333333333	0
bin	49.600666666667	0
bin	49.634	0
bin	49.667333333333	0
bin	49.700666666667	0
bin	49.734	0
bin	49.767333333333	0
bin	49.800666666667	0
bin	49.834	0
bin	49.867333333333	0
bin	49.900666666667	0
bin	49.934	1
bin	49.967333333333	0
bin	50.000666666667	0
bin	50.034	0
bin	50.067333333333	0
bin	50.100666666667	0
bin	50.134	0
bin	50.167333333333	0
bin	50.200666666667	0
bin	50.234	0
bin	50.267333333333	0
bin	50.300666666667	0
bin	50.334	0
bin	50.367333333333	0
bin	50.400666666667	0
bin	50.434	0
statistic RandomGeometricGraph.rgnv[6] 	arrivalPerc:histogram
field count 1
field mean 1
field stddev nan
field sum 1
field sqrsum 1
field min 1
field max 1
attr interpolationmode  none
attr source  count(arrival)
attr title  "arrival perc, histogram"
bin	-INF	0
bin	0	0
bin	1	1
bin	2	0
statistic RandomGeometricGraph.rgnv[7] 	arrivalTime:histogram
field count 1
field mean 86.617
field stddev nan
field sum 86.617
field sqrsum 7502.504689
field min 86.617
field max 86.617
attr interpolationmode  none
attr source  arrivalTime
attr title  "arrival time, histogram"
bin	-INF	0
bin	86.117	0
bin	86.150333333333	0
bin	86.183666666667	0
bin	86.217	0
bin	86.250333333333	0
bin	86.283666666667	0
bin	86.317	0
bin	86.350333333333	0
bin	86.383666666667	0
bin	86.417	0
bin	86.450333333333	0
bin	86.483666666667	0
bin	86.517	0
bin	86.550333333333	0
bin	86.583666666667	0
bin	86.617	1
bin	86.650333333333	0
bin	86.683666666667	0
bin	86.717	0
bin	86.750333333333	0
bin	86.783666666667	0
bin	86.817	0
bin	86.850333333333	0
bin	86.883666666667	0
bin	86.917	0
bin	86.950333333333	0
bin	86.983666666667	0
bin	87.017	0
bin	87.050333333333	0
bin	87.083666666667	0
bin	87.117	0
statistic RandomGeometricGraph.rgnv[7] 	arrivalPerc:histogram
field count 1
field mean 1
field stddev nan
field sum 1
field sqrsum 1
field min 1
field max 1
attr interpolationmode  none
attr source  count(arrival)
attr title  "arrival perc, histogram"
bin	-INF	0
bin	0	0
bin	1	1
bin	2	0
statistic RandomGeometricGraph.rgnv[8] 	arrivalTime:histogram
field count 1
field mean 49.944
field stddev nan
field sum 49.944
field sqrsum 2494.403136
field min 49.944
field max 49.944
attr interpolationmode  none
attr source  arrivalTime
attr title  "arrival time, histogram"
bin	-INF	0
bin	49.444	0
bin	49.477333333333	0
bin	49.510666666667	0
bin	49.544	0
bin	49.577333333333	0
bin	49.610666666667	0
bin	49.644	0
bin	49.677333333333	0
bin	49.710666666667	0
bin	49.744	0
bin	49.777333333333	0
bin	49.810666666667	0
bin	49.844	0
bin	49.877333333333	0
bin	49.910666666667	0
bin	49.944	1
bin	49.977333333333	0
bin	50.010666666667	0
bin	50.044	0
bin	50.077333333333	0
bin	50.110666666667	0
bin	50.144	0
bin	50.177333333333	0
bin	50.210666666667	0
bin	50.244	0
bin	50.277333333333	0
bin	50.310666666667	0
bin	50.344	0
bin	50.377333333333	0
bin	50.410666666667	0
bin	50.444	0
statistic RandomGeometricGraph.rgnv[8] 	arrivalPerc:histogram
field count 1
field mean 1
field stddev nan
field sum 1
field sqrsum 1
field min 1
field max 1
attr interpolationmode  none
attr source  count(arrival)
attr title  "arrival perc, histogram"
bin	-INF	0
bin	0	0
bin	1	1
bin	2	0
statistic RandomGeometricGraph.rgnv[9] 	arrivalTime:histogram
field count 1
field mean 89.426
field stddev nan
field sum 89.426
field sqrsum 7997.009476
field min 89.426
field max 89.426
attr interpolationmode  none
attr source  arrivalTime
attr title  "arrival time, histogram"
bin	-INF	0
bin	88.926	0
bin	88.959333333333	0
bin	88.992666666667	0
bin	89.026	0
bin	89.059333333333	0
bin	89.092666666667	0
bin	89.126	0
bin	89.159333333333	0
bin	89.192666666667	0
bin	89.226	0
bin	89.259333333333	0
bin	89.292666666667	0
bin	89.326	0
bin	89.359333333333	0
bin	89.392666666667	0
bin	89.426	1
bin	89.459333333333	0
bin	89.492666666667	0
bin	89.526	0
bin	89.559333333333	0
bin	89.592666666667	0
bin	89.626	0
bin	89.659333333333	0
bin	89.692666666667	0
bin	89.726	0
bin	89.759333333333	0
bin	89.792666666667	0
bin	89.826	0
bin	89.859333333333	0
bin	89.892666666667	0
bin	89.926	0
statistic RandomGeometricGraph.rgnv[9] 	arrivalPerc:histogram
field count 1
field mean 1
field stddev nan
field sum 1
field sqrsum 1
field min 1
field max 1
attr interpolationmode  none
attr source  count(arrival)
attr title  "arrival perc, histogram"
bin	-INF	0
bin	0	0
bin	1	1
bin	2	0
statistic RandomGeometricGraph.rgnv[10] 	arrivalTime:histogram
field count 1
field mean 74.396
field stddev nan
field sum 74.396
field sqrsum 5534.764816
field min 74.396
field max 74.396
attr interpolationmode  none
attr source  arrivalTime
attr title  "arrival time, histogram"
bin	-INF	0
bin	73.896	0
bin	73.929333333333	0
bin	73.962666666667	0
bin	73.996	0
bin	74.029333333333	0
bin	74.062666666667	0
bin	74.096	0
bin	74.129333333333	0
bin	74.162666666667	0
bin	74.196	0
bin	74.229333333333	0
bin	74.262666666667	0
bin	74.296	0
bin	74.329333333333	0
bin	74.362666666667	0
bin	74.396	1
bin	74.429333333333	0
bin	74.462666666667	0
bin	74.496	0
bin	74.529333333333	0
bin	74.562666666667	0
bin	74.596	0
bin	74.629333333333	0
bin	74.662666666667	0
bin	74.696	0
bin	74.729333333333	0
bin	74.762666666667	0
bin	74.796	0
bin	74.829333333333	0
bin	74.862666666667	0
bin	74.896	0
statistic RandomGeometricGraph.rgnv[10] 	arrivalPerc:histogram
field count 1
field mean 1
field stddev nan
field sum 1
field sqrsum 1
field min 1
field max 1
attr interpolationmode  none
attr source  count(arrival)
attr title  "arrival perc, histogram"
bin	-INF	0
bin	0	0
bin	1	1
bin	2	0
statistic RandomGeometricGraph.rgnv[11] 	arrivalTime:histogram
field count 1
field mean 86.637
field stddev nan
field sum 86.637
field sqrsum 7505.969769
field min 86.637
field max 86.637
attr interpolationmode  none
attr source  arrivalTime
attr title  "arrival time, histogram"
bin	-INF	0
bin	86.137	0
bin	86.170333333333	0
bin	86.203666666667	0
bin	86.237	0
bin	86.270333333333	0
bin	86.303666666667	0
bin	86.337	0
bin	86.370333333333	0
bin	86.403666666667	0
bin	86.437	0
bin	86.470333333333	0
bin	86.503666666667	0
bin	86.537	0
bin	86.570333333333	0
bin	86.603666666667	0
bin	86.637	1
bin	86.670333333333	0
bin	86.703666666667	0
bin	86.737	0
bin	86.770333333333	0
bin	86.803666666667	0
bin	86.837	0
bin	86.870333333333	0
bin	86.903666666667	0
bin	86.937	0
bin	86.970333333333	0
bin	87.003666666667	0
bin	87.037	0
bin	87.070333333333	0
bin	87.103666666667	0
bin	87.137	0
statistic RandomGeometricGraph.rgnv[11] 	arrivalPerc:histogram
field count 1
field mean 1
field stddev nan
field sum 1
field sqrsum 1
field min 1
field max 1
attr interpolationmode  none
attr source  count(arrival)
attr title  "arrival perc, histogram"
bin	-INF	0
bin	0	0
bin	1	1
bin	2	0
statistic RandomGeometricGraph.rgnv[12] 	arrivalTime:histogram
field count 1
field mean 98.868
field stddev nan
field sum 98.868
field sqrsum 9774.881424
field min 98.868
field max 98.868
attr interpolationmode  none
attr source  arrivalTime
attr title  "arrival time, histogram"
bin	-INF	0
bin	98.368	0
bin	98.401333333333	0
bin	98.434666666667	0
bin	98.468	0
bin	98.501333333333	0
bin	98.534666666667	0
bin	98.568	0
bin	98.601333333333	0
bin	98.634666666667	0
bin	98.668	0
bin	98.701333333333	0
bin	98.734666666667	0
bin	98.768	0
bin	98.801333333333	0
bin	98.834666666667	0
bin	98.868	1
bin	98.901333333333	0
bin	98.934666666667	0
bin	98.968	0
bin	99.001333333333	0
bin	99.034666666667	0
bin	99.068	0
bin	99.101333333333	0
bin	99.134666666667	0
bin	99.168	0
bin	99.201333333333	0
bin	99.234666666667	0
bin	99.268	0
bin	99.301333333333	0
bin	99.334666666667	0
bin	99.368	0
statistic RandomGeometricGraph.rgnv[12] 	arrivalPerc:histogram
field count 1
field mean 1
field stddev nan
field sum 1
field sqrsum 1
field min 1
field max 1
attr interpolationmode  none
attr source  count(arrival)
attr title  "arrival perc, histogram"
bin	-INF	0
bin	0	0
bin	1	1
bin	2	0
statistic RandomGeometricGraph.rgnv[13] 	arrivalTime:histogram
field count 1
field mean 96.657
field stddev nan
field sum 96.657
field sqrsum 9342.575649
field min 96.657
field max 96.657
attr interpolationmode  none
attr source  arrivalTime
attr title  "arrival time, histogram"
bin	-INF	0
bin	96.157	0
bin	96.190333333333	0
bin	96.223666666667	0
bin	96.257	0
bin	96.290333333333	0
bin	96.323666666667	0
bin	96.357	0
bin	96.390333333333	0
bin	96.423666666667	0
bin	96.457	0
bin	96.490333333333	0
bin	96.523666666667	0
bin	96.557	0
bin	96.590333333333	0
bin	96.623666666667	0
bin	96.657	1
bin	96.690333333333	0
bin	96.723666666667	0
bin	96.757	0
bin	96.790333333333	0
bin	96.823666666667	0
bin	96.857	0
bin	96.890333333333	0
bin	96.923666666667	0
bin	96.957	0
bin	96.990333333333	0
bin	97.023666666667	0
bin	97.057	0
bin	97.090333333333	0
bin	97.123666666667	0
bin	97.157	0
statistic RandomGeometricGraph.rgnv[13] 	arrivalPerc:histogram
field count 1
field mean 1
field stddev nan
field sum 1
field sqrsum 1
field min 1
field max 1
attr interpolationmode  none
attr source  count(arrival)
attr title  "arrival perc, histogram"
bin	-INF	0
bin	0	0
bin	1	1
bin	2	0
statistic RandomGeometricGraph.rgnv[14] 	arrivalTime:histogram
field count 1
field mean 67.175
field stddev nan
field sum 67.175
field sqrsum 4512.480625
field min 67.175
field max 67.175
attr interpolationmode  none
attr source  arrivalTime
attr title  "arrival time, histogram"
bin	-INF	0
bin	66.675	0
bin	66.708333333333	0
bin	66.741666666667	0
bin	66.775	0
bin	66.808333333333	0
bin	66.841666666667	0
bin	66.875	0
bin	66.908333333333	0
bin	66.941666666667	0
bin	66.975	0
bin	67.008333333333	0
bin	67.041666666667	0
bin	67.075	0
bin	67.108333333333	0
bin	67.141666666667	0
bin	67.175	1
bin	67.208333333333	0
bin	67.241666666667	0
bin	67.275	0
bin	67.308333333333	0
bin	67.341666666667	0
bin	67.375	0
bin	67.408333333333	0
bin	67.441666666667	0
bin	67.475	0
bin	67.508333333333	0
bin	67.541666666667	0
bin	67.575	0
bin	67.608333333333	0
bin	67.641666666667	0
bin	67.675	0
statistic RandomGeometricGraph.rgnv[14] 	arrivalPerc:histogram
field count 1
field mean 1
field stddev nan
field sum 1
field sqrsum 1
field min 1
field max 1
attr interpolationmode  none
attr source  count(arrival)
attr title  "arrival perc, histogram"
bin	-INF	0
bin	0	0
bin	1	1
bin	2	0
statistic RandomGeometricGraph.rgnv[15] 	arrivalTime:histogram
field count 1
field mean 91.637
field stddev nan
field sum 91.637
field sqrsum 8397.339769
field min 91.637
field max 91.637
attr interpolationmode  none
attr source  arrivalTime
attr title  "arrival time, histogram"
bin	-INF	0
bin	91.137	0
bin	91.170333333333	0
bin	91.203666666667	0
bin	91.237	0
bin	91.270333333333	0
bin	91.303666666667	0
bin	91.337	0
bin	91.370333333333	0
bin	91.403666666667	0
bin	91.437	0
bin	91.470333333333	0
bin	91.503666666667	0
bin	91.537	0
bin	91.570333333333	0
bin	91.603666666667	0
bin	91.637	1
bin	91.670333333333	0
bin	91.703666666667	0
bin	91.737	0
bin	91.770333333333	0
bin	91.803666666667	0
bin	91.837	0
bin	91.870333333333	0
bin	91.903666666667	0
bin	91.937	0
bin	91.970333333333	0
bin	92.003666666667	0
bin	92.037	0
bin	92.070333333333	0
bin	92.103666666667	0
bin	92.137	0
statistic RandomGeometricGraph.rgnv[15] 	arrivalPerc:histogram
field count 1
field mean 1
field stddev nan
field sum 1
field sqrsum 1
field min 1
field max 1
attr interpolationmode  none
attr source  count(arrival)
attr title  "arrival perc, histogram"
bin	-INF	0
bin	0	0
bin	1	1
bin	2	0
statistic RandomGeometricGraph.rgnv[16] 	arrivalTime:histogram
field count 1
field mean 99.426
field stddev nan
field sum 99.426
field sqrsum 9885.529476
field min 99.426
field max 99.426
attr interpolationmode  none
attr source  arrivalTime
attr title  "arrival time, histogram"
bin	-INF	0
bin	98.926	0
bin	98.959333333333	0
bin	98.992666666667	0
bin	99.026	0
bin	99.059333333333	0
bin	99.092666666667	0
bin	99.126	0
bin	99.159333333333	0
bin	99.192666666667	0
bin	99.226	0
bin	99.259333333333	0
bin	99.292666666667	0
bin	99.326	0
bin	99.359333333333	0
bin	99.392666666667	0
bin	99.426	1
bin	99.459333333333	0
bin	99.492666666667	0
bin	99.526	0
bin	99.559333333333	0
bin	99.592666666667	0
bin	99.626	0
bin	99.659333333333	0
bin	99.692666666667	0
bin	99.726	0
bin	99.759333333333	0
bin	99.792666666667	0
bin	99.826	0
bin	99.859333333333	0
bin	99.892666666667	0
bin	99.926	0
statistic RandomGeometricGraph.rgnv[16] 	arrivalPerc:histogram
field count 1
field mean 1
field stddev nan
field sum 1
field sqrsum 1
field min 1
field max 1
attr interpolationmode  none
attr source  count(arrival)
attr title  "arrival perc, histogram"
bin	-INF	0
bin	0	0
bin	1	1
bin	2	0
statistic RandomGeometricGraph.rgnv[17] 	arrivalTime:histogram
field count 1
field mean 74.396
field stddev nan
field sum 74.396
field sqrsum 5534.764816
field min 74.396
field max 74.396
attr interpolationmode  none
attr source  arrivalTime
attr title  "arrival time, histogram"
bin	-INF	0
bin	73.896	0
bin	73.929333333333	0
bin	73.962666666667	0
bin	73.996	0
bin	74.029333333333	0
bin	74.062666666667	0
bin	74.096	0
bin	74.129333333333	0
bin	74.162666666667	0
bin	74.196	0
bin	74.229333333333	0
bin	74.262666666667	0
bin	74.296	0
bin	74.329333333333	0
bin	74.362666666667	0
bin	74.396	1
bin	74.429333333333	0
bin	74.462666666667	0
bin	74.496	0
bin	74.529333333333	0
bin	74.562666666667	0
bin	74.596	0
bin	74.629333333333	0
bin	74.662666666667	0
bin	74.696	0
bin	74.729333333333	0
bin	74.762666666667	0
bin	74.796	0
bin	74.829333333333	0
bin	74.862666666667	0
bin	74.896	0
statistic RandomGeometricGraph.rgnv[17] 	arrivalPerc:histogram
field count 1
field mean 1
field stddev nan
field sum 1
field sqrsum 1
field min 1
field max 1
attr interpolationmode  none
attr source  count(arrival)
attr title  "arrival perc, histogram"
bin	-INF	0
bin	0	0
bin	1	1
bin	2	0
statistic RandomGeometricGraph.rgnv[18] 	arrivalTime:histogram
field count 1
field mean 98.868
field stddev nan
field sum 98.868
field sqrsum 9774.881424
field min 98.868
field max 98.868
attr interpolationmode  none
attr source  arrivalTime
attr title  "arrival time, histogram"
bin	-INF	0
bin	98.368	0
bin	98.401333333333	0
bin	98.434666666667	0
bin	98.468	0
bin	98.501333333333	0
bin	98.534666666667	0
bin	98.568	0
bin	98.601333333333	0
bin	98.634666666667	0
bin	98.668	0
bin	98.701333333333	0
bin	98.734666666667	0
bin	98.768	0
bin	98.801333333333	0
bin	98.834666666667	0
bin	98.868	1
bin	98.901333333333	0
bin	98.934666666667	0
bin	98.968	0
bin	99.001333333333	0
bin	99.034666666667	0
bin	99.068	0
bin	99.101333333333	0
bin	99.134666666667	0
bin	99.168	0
bin	99.201333333333	0
bin	99.234666666667	0
bin	99.268	0
bin	99.301333333333	0
bin	99.334666666667	0
bin	99.368	0
statistic RandomGeometricGraph.rgnv[18] 	arrivalPerc:histogram
field count 1
field mean 1
field stddev nan
field sum 1
field sqrsum 1
field min 1
field max 1
attr interpolationmode  none
attr source  count(arrival)
attr title  "arrival perc, histogram"
bin	-INF	0
bin	0	0
bin	1	1
bin	2	0
statistic RandomGeometricGraph.rgnv[19] 	arrivalTime:histogram
field count 1
field mean 91.637
field stddev nan
field sum 91.637
field sqrsum 8397.339769
field min 91.637
field max 91.637
attr interpolationmode  none
attr source  arrivalTime
attr title  "arrival time, histogram"
bin	-INF	0
bin	91.137	0
bin	91.170333333333	0
bin	91.203666666667	0
bin	91.237	0
bin	91.270333333333	0
bin	91.303666666667	0
bin	91.337	0
bin	91.370333333333	0
bin	91.403666666667	0
bin	91.437	0
bin	91.470333333333	0
bin	91.503666666667	0
bin	91.537	0
bin	91.570333333333	0
bin	91.603666666667	0
bin	91.637	1
bin	91.670333333333	0
bin	91.703666666667	0
bin	91.737	0
bin	91.770333333333	0
bin	91.803666666667	0
bin	91.837	0
bin	91.870333333333	0
bin	91.903666666667	0
bin	91.937	0
bin	91.970333333333	0
bin	92.003666666667	0
bin	92.037	0
bin	92.070333333333	0
bin	92.103666666667	0
bin	92.137	0
statistic RandomGeometricGraph.rgnv[19] 	arrivalPerc:histogram
field count 1
field mean 1
field stddev nan
field sum 1
field sqrsum 1
field min 1
field max 1
attr interpolationmode  none
attr source  count(arrival)
attr title  "arrival perc, histogram"
bin	-INF	0
bin	0	0
bin	1	1
bin	2	0
statistic RandomGeometricGraph.rgnv[20] 	arrivalTime:histogram
field count 1
field mean 108.878
field stddev nan
field sum 108.878
field sqrsum 11854.418884
field min 108.878
field max 108.878
attr interpolationmode  none
attr source  arrivalTime
attr title  "arrival time, histogram"
bin	-INF	0
bin	108.378	0
bin	108.41133333333	0
bin	108.44466666667	0
bin	108.478	0
bin	108.51133333333	0
bin	108.54466666667	0
bin	108.578	0
bin	108.61133333333	0
bin	108.64466666667	0
bin	108.678	0
bin	108.71133333333	0
bin	108.74466666667	0
bin	108.778	0
bin	108.81133333333	0
bin	108.84466666667	0
bin	108.878	1
bin	108.91133333333	0
bin	108.94466666667	0
bin	108.978	0
bin	109.01133333333	0
bin	109.04466666667	0
bin	109.078	0
bin	109.11133333333	0
bin	109.14466666667	0
bin	109.178	0
bin	109.21133333333	0
bin	109.24466666667	0
bin	109.278	0
bin	109.31133333333	0
bin	109.34466666667	0
bin	109.378	0
statistic RandomGeometricGraph.rgnv[20] 	arrivalPerc:histogram
field count 1
field mean 1
field stddev nan
field sum 1
field sqrsum 1
field min 1
field max 1
attr interpolationmode  none
attr source  count(arrival)
attr title  "arrival perc, histogram"
bin	-INF	0
bin	0	0
bin	1	1
bin	2	0
statistic RandomGeometricGraph.rgnv[21] 	arrivalTime:histogram
field count 1
field mean 62.175
field stddev nan
field sum 62.175
field sqrsum 3865.730625
field min 62.175
field max 62.175
attr interpolationmode  none
attr source  arrivalTime
attr title  "arrival time, histogram"
bin	-INF	0
bin	61.675	0
bin	61.708333333333	0
bin	61.741666666667	0
bin	61.775	0
bin	61.808333333333	0
bin	61.841666666667	0
bin	61.875	0
bin	61.908333333333	0
bin	61.941666666667	0
bin	61.975	0
bin	62.008333333333	0
bin	62.041666666667	0
bin	62.075	0
bin	62.108333333333	0
bin	62.141666666667	0
bin	62.175	1
bin	62.208333333333	0
bin	62.241666666667	0
bin	62.275	0
bin	62.308333333333	0
bin	62.341666666667	0
bin	62.375	0
bin	62.408333333333	0
bin	62.441666666667	0
bin	62.475	0
bin	62.508333333333	0
bin	62.541666666667	0
bin	62.575	0
bin	62.608333333333	0
bin	62.641666666667	0
bin	62.675	0
statistic RandomGeometricGraph.rgnv[21] 	arrivalPerc:histogram
field count 1
field mean 1
field stddev nan
field sum 1
field sqrsum 1
field min 1
field max 1
attr interpolationmode  none
attr source  count(arrival)
attr title  "arrival perc, histogram"
bin	-INF	0
bin	0	0
bin	1	1
bin	2	0
statistic RandomGeometricGraph.rgnv[22] 	arrivalTime:histogram
field count 1
field mean 91.647
field stddev nan
field sum 91.647
field sqrsum 8399.172609
field min 91.647
field max 91.647
attr interpolationmode  none
attr source  arrivalTime
attr title  "arrival time, histogram"
bin	-INF	0
bin	91.147	0
bin	91.180333333333	0
bin	91.213666666667	0
bin	91.247	0
bin	91.280333333333	0
bin	91.313666666667	0
bin	91.347	0
bin	91.380333333333	0
bin	91.413666666667	0
bin	91.447	0
bin	91.480333333333	0
bin	91.513666666667	0
bin	91.547	0
bin	91.580333333333	0
bin	91.613666666667	0
bin	91.647	1
bin	91.680333333333	0
bin	91.713666666667	0
bin	91.747	0
bin	91.780333333333	0
bin	91.813666666667	0
bin	91.847	0
bin	91.880333333333	0
bin	91.913666666667	0
bin	91.947	0
bin	91.980333333333	0
bin	92.013666666667	0
bin	92.047	0
bin	92.080333333333	0
bin	92.113666666667	0
bin	92.147	0
statistic RandomGeometricGraph.rgnv[22] 	arrivalPerc:histogram
field count 1
field mean 1
field stddev nan
field sum 1
field sqrsum 1
field min 1
field max 1
attr interpolationmode  none
attr source  count(arrival)
attr title  "arrival perc, histogram"
bin	-INF	0
bin	0	0
bin	1	1
bin	2	0
statistic RandomGeometricGraph.rgnv[23] 	arrivalTime:histogram
field count 1
field mean 86.637
field stddev nan
field sum 86.637
field sqrsum 7505.969769
field min 86.637
field max 86.637
attr interpolationmode  none
attr source  arrivalTime
attr title  "arrival time, histogram"
bin	-INF	0
bin	86.137	0
bin	86.170333333333	0
bin	86.203666666667	0
bin	86.237	0
bin	86.270333333333	0
bin	86.303666666667	0
bin	86.337	0
bin	86.370333333333	0
bin	86.403666666667	0
bin	86.437	0
bin	86.470333333333	0
bin	86.503666666667	0
bin	86.537	0
bin	86.570333333333	0
bin	86.603666666667	0
bin	86.637	1
bin	86.670333333333	0
bin	86.703666666667	0
bin	86.737	0
bin	86.770333333333	0
bin	86.803666666667	0
bin	86.837	0
bin	86.870333333333	0
bin	86.903666666667	0
bin	86.937	0
bin	86.970333333333	0
bin	87.003666666667	0
bin	87.037	0
bin	87.070333333333	0
bin	87.103666666667	0
bin	87.137	0
statistic RandomGeometricGraph.rgnv[23] 	arrivalPerc:histogram
field count 1
field mean 1
field stddev nan
field sum 1
field sqrsum 1
field min 1
field max 1
attr interpolationmode  none
attr source  count(arrival)
attr title  "arrival perc, histogram"
bin	-INF	0
bin	0	0
bin	1	1
bin	2	0
statistic RandomGeometricGraph.rgnv[24] 	arrivalTime:histogram
field count 1
field mean 77.195
field stddev nan
field sum 77.195
field sqrsum 5959.068025
field min 77.195
field max 77.195
attr interpolationmode  none
attr source  arrivalTime
attr title  "arrival time, histogram"
bin	-INF	0
bin	76.695	0
bin	76.728333333333	0
bin	76.761666666667	0
bin	76.795	0
bin	76.828333333333	0
bin	76.861666666667	0
bin	76.895	0
bin	76.928333333333	0
bin	76.961666666667	0
bin	76.995	0
bin	77.028333333333	0
bin	77.061666666667	0
bin	77.095	0
bin	77.128333333333	0
bin	77.161666666667	0
bin	77.195	1
bin	77.228333333333	0
bin	77.261666666667	0
bin	77.295	0
bin	77.328333333333	0
bin	77.361666666667	0
bin	77.395	0
bin	77.428333333333	0
bin	77.461666666667	0
bin	77.495	0
bin	77.528333333333	0
bin	77.561666666667	0
bin	77.595	0
bin	77.628333333333	0
bin	77.661666666667	0
bin	77.695	0
statistic RandomGeometricGraph.rgnv[24] 	arrivalPerc:histogram
field count 1
field mean 1
field stddev nan
field sum 1
field sqrsum 1
field min 1
field max 1
attr interpolationmode  none
attr source  count(arrival)
attr title  "arrival perc, histogram"
bin	-INF	0
bin	0	0
bin	1	1
bin	2	0
statistic RandomGeometricGraph.rgnv[25] 	arrivalTime:histogram
field count 1
field mean 79.416
field stddev nan
field sum 79.416
field sqrsum 6306.901056
field min 79.416
field max 79.416
attr interpolationmode  none
attr source  arrivalTime
attr title  "arrival time, histogram"
bin	-INF	0
bin	78.916	0
bin	78.949333333333	0
bin	78.982666666667	0
bin	79.016	0
bin	79.049333333333	0
bin	79.082666666667	0
bin	79.116	0
bin	79.149333333333	0
bin	79.182666666667	0
bin	79.216	0
bin	79.249333333333	0
bin	79.282666666667	0
bin	79.316	0
bin	79.349333333333	0
bin	79.382666666667	0
bin	79.416	1
bin	79.449333333333	0
bin	79.482666666667	0
bin	79.516	0
bin	79.549333333333	0
bin	79.582666666667	0
bin	79.616	0
bin	79.649333333333	0
bin	79.682666666667	0
bin	79.716	0
bin	79.749333333333	0
bin	79.782666666667	0
bin	79.816	0
bin	79.849333333333	0
bin	79.882666666667	0
bin	79.916	0
statistic RandomGeometricGraph.rgnv[25] 	arrivalPerc:histogram
field count 1
field mean 1
field stddev nan
field sum 1
field sqrsum 1
field min 1
field max 1
attr interpolationmode  none
attr source  count(arrival)
attr title  "arrival perc, histogram"
bin	-INF	0
bin	0	0
bin	1	1
bin	2	0
statistic RandomGeometricGraph.rgnv[26] 	arrivalTime:histogram
field count 1
field mean 103.858
field stddev nan
field sum 103.858
field sqrsum 10786.484164
field min 103.858
field max 103.858
attr interpolationmode  none
attr source  arrivalTime
attr title  "arrival time, histogram"
bin	-INF	0
bin	103.358	0
bin	103.39133333333	0
bin	103.42466666667	0
bin	103.458	0
bin	103.49133333333	0
bin	103.52466666667	0
bin	103.558	0
bin	103.59133333333	0
bin	103.62466666667	0
bin	103.658	0
bin	103.69133333333	0
bin	103.72466666667	0
bin	103.758	0
bin	103.79133333333	0
bin	103.82466666667	0
bin	103.858	1
bin	103.89133333333	0
bin	103.92466666667	0
bin	103.958	0
bin	103.99133333333	0
bin	104.02466666667	0
bin	104.058	0
bin	104.09133333333	0
bin	104.12466666667	0
bin	104.158	0
bin	104.19133333333	0
bin	104.22466666667	0
bin	104.258	0
bin	104.29133333333	0
bin	104.32466666667	0
bin	104.358	0
statistic RandomGeometricGraph.rgnv[26] 	arrivalPerc:histogram
field count 1
field mean 1
field stddev nan
field sum 1
field sqrsum 1
field min 1
field max 1
attr interpolationmode  none
attr source  count(arrival)
attr title  "arrival perc, histogram"
bin	-INF	0
bin	0	0
bin	1	1
bin	2	0
statistic RandomGeometricGraph.rgnv[27] 	arrivalTime:histogram
field count 1
field mean 62.175
field stddev nan
field sum 62.175
field sqrsum 3865.730625
field min 62.175
field max 62.175
attr interpolationmode  none
attr source  arrivalTime
attr title  "arrival time, histogram"
bin	-INF	0
bin	61.675	0
bin	61.708333333333	0
bin	61.741666666667	0
bin	61.775	0
bin	61.808333333333	0
bin	61.841666666667	0
bin	61.875	0
bin	61.908333333333	0
bin	61.941666666667	0
bin	61.975	0
bin	62.008333333333	0
bin	62.041666666667	0
bin	62.075	0
bin	62.108333333333	0
bin	62.141666666667	0
bin	62.175	1
bin	62.208333333333	0
bin	62.241666666667	0
bin	62.275	0
bin	62.308333333333	0
bin	62.341666666667	0
bin	62.375	0
bin	62.408333333333	0
bin	62.441666666667	0
bin	62.475	0
bin	62.508333333333	0
bin	62.541666666667	0
bin	62.575	0
bin	62.608333333333	0
bin	62.641666666667	0
bin	62.675	0
statistic RandomGeometricGraph.rgnv[27] 	arrivalPerc:histogram
field count 1
field mean 1
field stddev nan
field sum 1
field sqrsum 1
field min 1
field max 1
attr interpolationmode  none
attr source  count(arrival)
attr title  "arrival perc, histogram"
bin	-INF	0
bin	0	0
bin	1	1
bin	2	0
statistic RandomGeometricGraph.rgnv[28] 	arrivalTime:histogram
field count 1
field mean 72.185
field stddev nan
field sum 72.185
field sqrsum 5210.674225
field min 72.185
field max 72.185
attr interpolationmode  none
attr source  arrivalTime
attr title  "arrival time, histogram"
bin	-INF	0
bin	71.685	0
bin	71.718333333333	0
bin	71.751666666667	0
bin	71.785	0
bin	71.818333333333	0
bin	71.851666666667	0
bin	71.885	0
bin	71.918333333333	0
bin	71.951666666667	0
bin	71.985	0
bin	72.018333333333	0
bin	72.051666666667	0
bin	72.085	0
bin	72.118333333333	0
bin	72.151666666667	0
bin	72.185	1
bin	72.218333333333	0
bin	72.251666666667	0
bin	72.285	0
bin	72.318333333333	0
bin	72.351666666667	0
bin	72.385	0
bin	72.418333333333	0
bin	72.451666666667	0
bin	72.485	0
bin	72.518333333333	0
bin	72.551666666667	0
bin	72.585	0
bin	72.618333333333	0
bin	72.651666666667	0
bin	72.685	0
statistic RandomGeometricGraph.rgnv[28] 	arrivalPerc:histogram
field count 1
field mean 1
field stddev nan
field sum 1
field sqrsum 1
field min 1
field max 1
attr interpolationmode  none
attr source  count(arrival)
attr title  "arrival perc, histogram"
bin	-INF	0
bin	0	0
bin	1	1
bin	2	0
statistic RandomGeometricGraph.rgnv[29] 	arrivalTime:histogram
field count 1
field mean 79.406
field stddev nan
field sum 79.406
field sqrsum 6305.312836
field min 79.406
field max 79.406
attr interpolationmode  none
attr source  arrivalTime
attr title  "arrival time, histogram"
bin	-INF	0
bin	78.906	0
bin	78.939333333333	0
bin	78.972666666667	0
bin	79.006	0
bin	79.039333333333	0
bin	79.072666666667	0
bin	79.106	0
bin	79.139333333333	0
bin	79.172666666667	0
bin	79.206	0
bin	79.239333333333	0
bin	79.272666666667	0
bin	79.306	0
bin	79.339333333333	0
bin	79.372666666667	0
bin	79.406	1
bin	79.439333333333	0
bin	79.472666666667	0
bin	79.506	0
bin	79.539333333333	0
bin	79.572666666667	0
bin	79.606	0
bin	79.639333333333	0
bin	79.672666666667	0
bin	79.706	0
bin	79.739333333333	0
bin	79.772666666667	0
bin	79.806	0
bin	79.839333333333	0
bin	79.872666666667	0
bin	79.906	0
statistic RandomGeometricGraph.rgnv[29] 	arrivalPerc:histogram
field count 1
field mean 1
field stddev nan
field sum 1
field sqrsum 1
field min 1
field max 1
attr interpolationmode  none
attr source  count(arrival)
attr title  "arrival perc, histogram"
bin	-INF	0
bin	0	0
bin	1	1
bin	2	0
statistic RandomGeometricGraph.rgnv[30] 	arrivalTime:histogram
field count 1
field mean 74.406
field stddev nan
field sum 74.406
field sqrsum 5536.252836
field min 74.406
field max 74.406
attr interpolationmode  none
attr source  arrivalTime
attr title  "arrival time, histogram"
bin	-INF	0
bin	73.906	0
bin	73.939333333333	0
bin	73.972666666667	0
bin	74.006	0
bin	74.039333333333	0
bin	74.072666666667	0
bin	74.106	0
bin	74.139333333333	0
bin	74.172666666667	0
bin	74.206	0
bin	74.239333333333	0
bin	74.272666666667	0
bin	74.306	0
bin	74.339333333333	0
bin	74.372666666667	0
bin	74.406	1
bin	74.439333333333	0
bin	74.472666666667	0
bin	74.506	0
bin	74.539333333333	0
bin	74.572666666667	0
bin	74.606	0
bin	74.639333333333	0
bin	74.672666666667	0
bin	74.706	0
bin	74.739333333333	0
bin	74.772666666667	0
bin	74.806	0
bin	74.839333333333	0
bin	74.872666666667	0
bin	74.906	0
statistic RandomGeometricGraph.rgnv[30] 	arrivalPerc:histogram
field count 1
field mean 1
field stddev nan
field sum 1
field sqrsum 1
field min 1
field max 1
attr interpolationmode  none
attr source  count(arrival)
attr title  "arrival perc, histogram"
bin	-INF	0
bin	0	0
bin	1	1
bin	2	0
statistic RandomGeometricGraph.rgnv[31] 	arrivalTime:histogram
field count 1
field mean 13.231
field stddev nan
field sum 13.231
field sqrsum 175.059361
field min 13.231
field max 13.231
attr interpolationmode  none
attr source  arrivalTime
attr title  "arrival time, histogram"
bin	-INF	0
bin	12.731	0
bin	12.764333333333	0
bin	12.797666666667	0
bin	12.831	0
bin	12.864333333333	0
bin	12.897666666667	0
bin	12.931	0
bin	12.964333333333	0
bin	12.997666666667	0
bin	13.031	0
bin	13.064333333333	0
bin	13.097666666667	0
bin	13.131	0
bin	13.164333333333	0
bin	13.197666666667	0
bin	13.231	1
bin	13.264333333333	0
bin	13.297666666667	0
bin	13.331	0
bin	13.364333333333	0
bin	13.397666666667	0
bin	13.431	0
bin	13.464333333333	0
bin	13.497666666667	0
bin	13.531	0
bin	13.564333333333	0
bin	13.597666666667	0
bin	13.631	0
bin	13.664333333333	0
bin	13.697666666667	0
bin	13.731	0
statistic RandomGeometricGraph.rgnv[31] 	arrivalPerc:histogram
field count 1
field mean 1
field stddev nan
field sum 1
field sqrsum 1
field min 1
field max 1
attr interpolationmode  none
attr source  count(arrival)
attr title  "arrival perc, histogram"
bin	-INF	0
bin	0	0
bin	1	1
bin	2	0
statistic RandomGeometricGraph.rgnv[32] 	arrivalTime:histogram
field count 1
field mean 84.416
field stddev nan
field sum 84.416
field sqrsum 7126.061056
field min 84.416
field max 84.416
attr interpolationmode  none
attr source  arrivalTime
attr title  "arrival time, histogram"
bin	-INF	0
bin	83.916	0
bin	83.949333333333	0
bin	83.982666666667	0
bin	84.016	0
bin	84.049333333333	0
bin	84.082666666667	0
bin	84.116	0
bin	84.149333333333	0
bin	84.182666666667	0
bin	84.216	0
bin	84.249333333333	0
bin	84.282666666667	0
bin	84.316	0
bin	84.349333333333	0
bin	84.382666666667	0
bin	84.416	1
bin	84.449333333333	0
bin	84.482666666667	0
bin	84.516	0
bin	84.549333333333	0
bin	84.582666666667	0
bin	84.616	0
bin	84.649333333333	0
bin	84.682666666667	0
bin	84.716	0
bin	84.749333333333	0
bin	84.782666666667	0
bin	84.816	0
bin	84.849333333333	0
bin	84.882666666667	0
bin	84.916	0
statistic RandomGeometricGraph.rgnv[32] 	arrivalPerc:histogram
field count 1
field mean 1
field stddev nan
field sum 1
field sqrsum 1
field min 1
field max 1
attr interpolationmode  none
attr source  count(arrival)
attr title  "arrival perc, histogram"
bin	-INF	0
bin	0	0
bin	1	1
bin	2	0
statistic RandomGeometricGraph.rgnv[33] 	arrivalTime:histogram
field count 1
field mean 79.406
field stddev nan
field sum 79.406
field sqrsum 6305.312836
field min 79.406
field max 79.406
attr interpolationmode  none
attr source  arrivalTime
attr title  "arrival time, histogram"
bin	-INF	0
bin	78.906	0
bin	78.939333333333	0
bin	78.972666666667	0
bin	79.006	0
bin	79.039333333333	0
bin	79.072666666667	0
bin	79.106	0
bin	79.139333333333	0
bin	79.172666666667	0
bin	79.206	0
bin	79.239333333333	0
bin	79.272666666667	0
bin	79.306	0
bin	79.339333333333	0
bin	79.372666666667	0
bin	79.406	1
bin	79.439333333333	0
bin	79.472666666667	0
bin	79.506	0
bin	79.539333333333	0
bin	79.572666666667	0
bin	79.606	0
bin	79.639333333333	0
bin	79.672666666667	0
bin	79.706	0
bin	79.739333333333	0
bin	79.772666666667	0
bin	79.806	0
bin	79.839333333333	0
bin	79.872666666667	0
bin	79.906	0
statistic RandomGeometricGraph.rgnv[33] 	arrivalPerc:histogram
field count 1
field mean 1
field stddev nan
field sum 1
field sqrsum 1
field min 1
field max 1
attr interpolationmode  none
attr source  count(arrival)
attr title  "arrival perc, histogram"
bin	-INF	0
bin	0	0
bin	1	1
bin	2	0
statistic RandomGeometricGraph.rgnv[34] 	arrivalTime:histogram
field count 1
field mean 37.703
field stddev nan
field sum 37.703
field sqrsum 1421.516209
field min 37.703
field max 37.703
attr interpolationmode  none
attr source  arrivalTime
attr title  "arrival time, histogram"
bin	-INF	0
bin	37.203	0
bin	37.236333333333	0
bin	37.269666666667	0
bin	37.303	0
bin	37.336333333333	0
bin	37.369666666667	0
bin	37.403	0
bin	37.436333333333	0
bin	37.469666666667	0
bin	37.503	0
bin	37.536333333333	0
bin	37.569666666667	0
bin	37.603	0
bin	37.636333333333	0
bin	37.669666666667	0
bin	37.703	1
bin	37.736333333333	0
bin	37.769666666667	0
bin	37.803	0
bin	37.836333333333	0
bin	37.869666666667	0
bin	37.903	0
bin	37.936333333333	0
bin	37.969666666667	0
bin	38.003	0
bin	38.036333333333	0
bin	38.069666666667	0
bin	38.103	0
bin	38.136333333333	0
bin	38.169666666667	0
bin	38.203	0
statistic RandomGeometricGraph.rgnv[34] 	arrivalPerc:histogram
field count 1
field mean 1
field stddev nan
field sum 1
field sqrsum 1
field min 1
field max 1
attr interpolationmode  none
attr source  count(arrival)
attr title  "arrival perc, histogram"
bin	-INF	0
bin	0	0
bin	1	1
bin	2	0
statistic RandomGeometricGraph.rgnv[35] 	arrivalTime:histogram
field count 1
field mean 25.462
field stddev nan
field sum 25.462
field sqrsum 648.313444
field min 25.462
field max 25.462
attr interpolationmode  none
attr source  arrivalTime
attr title  "arrival time, histogram"
bin	-INF	0
bin	24.962	0
bin	24.995333333333	0
bin	25.028666666667	0
bin	25.062	0
bin	25.095333333333	0
bin	25.128666666667	0
bin	25.162	0
bin	25.195333333333	0
bin	25.228666666667	0
bin	25.262	0
bin	25.295333333333	0
bin	25.328666666667	0
bin	25.362	0
bin	25.395333333333	0
bin	25.428666666667	0
bin	25.462	1
bin	25.495333333333	0
bin	25.528666666667	0
bin	25.562	0
bin	25.595333333333	0
bin	25.628666666667	0
bin	25.662	0
bin	25.695333333333	0
bin	25.728666666667	0
bin	25.762	0
bin	25.795333333333	0
bin	25.828666666667	0
bin	25.862	0
bin	25.895333333333	0
bin	25.928666666667	0
bin	25.962	0
statistic RandomGeometricGraph.rgnv[35] 	arrivalPerc:histogram
field count 1
field mean 1
field stddev nan
field sum 1
field sqrsum 1
field min 1
field max 1
attr interpolationmode  none
attr source  count(arrival)
attr title  "arrival perc, histogram"
bin	-INF	0
bin	0	0
bin	1	1
bin	2	0
statistic RandomGeometricGraph.rgnv[36] 	arrivalTime:histogram
field count 1
field mean 62.175
field stddev nan
field sum 62.175
field sqrsum 3865.730625
field min 62.175
field max 62.175
attr interpolationmode  none
attr source  arrivalTime
attr title  "arrival time, histogram"
bin	-INF	0
bin	61.675	0
bin	61.708333333333	0
bin	61.741666666667	0
bin	61.775	0
bin	61.808333333333	0
bin	61.841666666667	0
bin	61.875	0
bin	61.908333333333	0
bin	61.941666666667	0
bin	61.975	0
bin	62.008333333333	0
bin	62.041666666667	0
bin	62.075	0
bin	62.108333333333	0
bin	62.141666666667	0
bin	62.175	1
bin	62.208333333333	0
bin	62.241666666667	0
bin	62.275	0
bin	62.308333333333	0
bin	62.341666666667	0
bin	62.375	0
bin	62.408333333333	0
bin	62.441666666667	0
bin	62.475	0
bin	62.508333333333	0
bin	62.541666666667	0
bin	62.575	0
bin	62.608333333333	0
bin	62.641666666667	0
bin	62.675	0
statistic RandomGeometricGraph.rgnv[36] 	arrivalPerc:histogram
field count 1
field mean 1
field stddev nan
field sum 1
field sqrsum 1
field min 1
field max 1
attr interpolationmode  none
attr source  count(arrival)
attr title  "arrival perc, histogram"
bin	-INF	0
bin	0	0
bin	1	1
bin	2	0
statistic RandomGeometricGraph.rgnv[37] 	arrivalTime:histogram
field count 1
field mean 98.848
field stddev nan
field sum 98.848
field sqrsum 9770.927104
field min 98.848
field max 98.848
attr interpolationmode  none
attr source  arrivalTime
attr title  "arrival time, histogram"
bin	-INF	0
bin	98.348	0
bin	98.381333333333	0
bin	98.414666666667	0
bin	98.448	0
bin	98.481333333333	0
bin	98.514666666667	0
bin	98.548	0
bin	98.581333333333	0
bin	98.614666666667	0
bin	98.648	0
bin	98.681333333333	0
bin	98.714666666667	0
bin	98.748	0
bin	98.781333333333	0
bin	98.814666666667	0
bin	98.848	1
bin	98.881333333333	0
bin	98.914666666667	0
bin	98.948	0
bin	98.981333333333	0
bin	99.014666666667	0
bin	99.048	0
bin	99.081333333333	0
bin	99.114666666667	0
bin	99.148	0
bin	99.181333333333	0
bin	99.214666666667	0
bin	99.248	0
bin	99.281333333333	0
bin	99.314666666667	0
bin	99.348	0
statistic RandomGeometricGraph.rgnv[37] 	arrivalPerc:histogram
field count 1
field mean 1
field stddev nan
field sum 1
field sqrsum 1
field min 1
field max 1
attr interpolationmode  none
attr source  count(arrival)
attr title  "arrival perc, histogram"
bin	-INF	0
bin	0	0
bin	1	1
bin	2	0
statistic RandomGeometricGraph.rgnv[38] 	arrivalTime:histogram
field count 1
field mean 86.627
field stddev nan
field sum 86.627
field sqrsum 7504.237129
field min 86.627
field max 86.627
attr interpolationmode  none
attr source  arrivalTime
attr title  "arrival time, histogram"
bin	-INF	0
bin	86.127	0
bin	86.160333333333	0
bin	86.193666666667	0
bin	86.227	0
bin	86.260333333333	0
bin	86.293666666667	0
bin	86.327	0
bin	86.360333333333	0
bin	86.393666666667	0
bin	86.427	0
bin	86.460333333333	0
bin	86.493666666667	0
bin	86.527	0
bin	86.560333333333	0
bin	86.593666666667	0
bin	86.627	1
bin	86.660333333333	0
bin	86.693666666667	0
bin	86.727	0
bin	86.760333333333	0
bin	86.793666666667	0
bin	86.827	0
bin	86.860333333333	0
bin	86.893666666667	0
bin	86.927	0
bin	86.960333333333	0
bin	86.993666666667	0
bin	87.027	0
bin	87.060333333333	0
bin	87.093666666667	0
bin	87.127	0
statistic RandomGeometricGraph.rgnv[38] 	arrivalPerc:histogram
field count 1
field mean 1
field stddev nan
field sum 1
field sqrsum 1
field min 1
field max 1
attr interpolationmode  none
attr source  count(arrival)
attr title  "arrival perc, histogram"
bin	-INF	0
bin	0	0
bin	1	1
bin	2	0
statistic RandomGeometricGraph.rgnv[39] 	arrivalTime:histogram
field count 1
field mean 91.637
field stddev nan
field sum 91.637
field sqrsum 8397.339769
field min 91.637
field max 91.637
attr interpolationmode  none
attr source  arrivalTime
attr title  "arrival time, histogram"
bin	-INF	0
bin	91.137	0
bin	91.170333333333	0
bin	91.203666666667	0
bin	91.237	0
bin	91.270333333333	0
bin	91.303666666667	0
bin	91.337	0
bin	91.370333333333	0
bin	91.403666666667	0
bin	91.437	0
bin	91.470333333333	0
bin	91.503666666667	0
bin	91.537	0
bin	91.570333333333	0
bin	91.603666666667	0
bin	91.637	1
bin	91.670333333333	0
bin	91.703666666667	0
bin	91.737	0
bin	91.770333333333	0
bin	91.803666666667	0
bin	91.837	0
bin	91.870333333333	0
bin	91.903666666667	0
bin	91.937	0
bin	91.970333333333	0
bin	92.003666666667	0
bin	92.037	0
bin	92.070333333333	0
bin	92.103666666667	0
bin	92.137	0
statistic RandomGeometricGraph.rgnv[39] 	arrivalPerc:histogram
field count 1
field mean 1
field stddev nan
field sum 1
field sqrsum 1
field min 1
field max 1
attr interpolationmode  none
attr source  count(arrival)
attr title  "arrival perc, histogram"
bin	-INF	0
bin	0	0
bin	1	1
bin	2	0
statistic RandomGeometricGraph.rgnv[40] 	arrivalTime:histogram
field count 1
field mean 0
field stddev nan
field sum 0
field sqrsum 0
field min 0
field max 0
attr interpolationmode  none
attr source  arrivalTime
attr title  "arrival time, histogram"
bin	-INF	0
bin	-0.5	0
bin	-0.46666666666667	0
bin	-0.43333333333333	0
bin	-0.4	0
bin	-0.36666666666667	0
bin	-0.33333333333333	0
bin	-0.3	0
bin	-0.26666666666667	0
bin	-0.23333333333333	0
bin	-0.2	0
bin	-0.16666666666667	0
bin	-0.13333333333333	0
bin	-0.1	0
bin	-0.066666666666667	0
bin	-0.033333333333333	0
bin	0	1
bin	0.033333333333333	0
bin	0.066666666666667	0
bin	0.1	0
bin	0.13333333333333	0
bin	0.16666666666667	0
bin	0.2	0
bin	0.23333333333333	0
bin	0.26666666666667	0
bin	0.3	0
bin	0.33333333333333	0
bin	0.36666666666667	0
bin	0.4	0
bin	0.43333333333333	0
bin	0.46666666666667	0
bin	0.5	0
statistic RandomGeometricGraph.rgnv[40] 	arrivalPerc:histogram
field count 1
field mean 1
field stddev nan
field sum 1
field sqrsum 1
field min 1
field max 1
attr interpolationmode  none
attr source  count(arrival)
attr title  "arrival perc, histogram"
bin	-INF	0
bin	0	0
bin	1	1
bin	2	0
statistic RandomGeometricGraph.rgnv[41] 	arrivalTime:histogram
field count 1
field mean 79.416
field stddev nan
field sum 79.416
field sqrsum 6306.901056
field min 79.416
field max 79.416
attr interpolationmode  none
attr source  arrivalTime
attr title  "arrival time, histogram"
bin	-INF	0
bin	78.916	0
bin	78.949333333333	0
bin	78.982666666667	0
bin	79.016	0
bin	79.049333333333	0
bin	79.082666666667	0
bin	79.116	0
bin	79.149333333333	0
bin	79.182666666667	0
bin	79.216	0
bin	79.249333333333	0
bin	79.282666666667	0
bin	79.316	0
bin	79.349333333333	0
bin	79.382666666667	0
bin	79.416	1
bin	79.449333333333	0
bin	79.482666666667	0
bin	79.516	0
bin	79.549333333333	0
bin	79.582666666667	0
bin	79.616	0
bin	79.649333333333	0
bin	79.682666666667	0
bin	79.716	0
bin	79.749333333333	0
bin	79.782666666667	0
bin	79.816	0
bin	79.849333333333	0
bin	79.882666666667	0
bin	79.916	0
statistic RandomGeometricGraph.rgnv[41] 	arrivalPerc:histogram
field count 1
field mean 1
field stddev nan
field sum 1
field sqrsum 1
field min 1
field max 1
attr interpolationmode  none
attr source  count(arrival)
attr title  "arrival perc, histogram"
bin	-INF	0
bin	0	0
bin	1	1
bin	2	0
statistic RandomGeometricGraph.rgnv[42] 	arrivalTime:histogram
field count 1
field mean 91.647
field stddev nan
field sum 91.647
field sqrsum 8399.172609
field min 91.647
field max 91.647
attr interpolationmode  none
attr source  arrivalTime
attr title  "arrival time, histogram"
bin	-INF	0
bin	91.147	0
bin	91.180333333333	0
bin	91.213666666667	0
bin	91.247	0
bin	91.280333333333	0
bin	91.313666666667	0
bin	91.347	0
bin	91.380333333333	0
bin	91.413666666667	0
bin	91.447	0
bin	91.480333333333	0
bin	91.513666666667	0
bin	91.547	0
bin	91.580333333333	0
bin	91.613666666667	0
bin	91.647	1
bin	91.680333333333	0
bin	91.713666666667	0
bin	91.747	0
bin	91.780333333333	0
bin	91.813666666667	0
bin	91.847	0
bin	91.880333333333	0
bin	91.913666666667	0
bin	91.947	0
bin	91.980333333333	0
bin	92.013666666667	0
bin	92.047	0
bin	92.080333333333	0
bin	92.113666666667	0
bin	92.147	0
statistic RandomGeometricGraph.rgnv[42] 	arrivalPerc:histogram
field count 1
field mean 1
field stddev nan
field sum 1
field sqrsum 1
field min 1
field max 1
attr interpolationmode  none
attr source  count(arrival)
attr title  "arrival perc, histogram"
bin	-INF	0
bin	0	0
bin	1	1
bin	2	0
statistic RandomGeometricGraph.rgnv[43] 	arrivalTime:histogram
field count 1
field mean 62.155
field stddev nan
field sum 62.155
field sqrsum 3863.244025
field min 62.155
field max 62.155
attr interpolationmode  none
attr source  arrivalTime
attr title  "arrival time, histogram"
bin	-INF	0
bin	61.655	0
bin	61.688333333333	0
bin	61.721666666667	0
bin	61.755	0
bin	61.788333333333	0
bin	61.821666666667	0
bin	61.855	0
bin	61.888333333333	0
bin	61.921666666667	0
bin	61.955	0
bin	61.988333333333	0
bin	62.021666666667	0
bin	62.055	0
bin	62.088333333333	0
bin	62.121666666667	0
bin	62.155	1
bin	62.188333333333	0
bin	62.221666666667	0
bin	62.255	0
bin	62.288333333333	0
bin	62.321666666667	0
bin	62.355	0
bin	62.388333333333	0
bin	62.421666666667	0
bin	62.455	0
bin	62.488333333333	0
bin	62.521666666667	0
bin	62.555	0
bin	62.588333333333	0
bin	62.621666666667	0
bin	62.655	0
statistic RandomGeometricGraph.rgnv[43] 	arrivalPerc:histogram
field count 1
field mean 1
field stddev nan
field sum 1
field sqrsum 1
field min 1
field max 1
attr interpolationmode  none
attr source  count(arrival)
attr title  "arrival perc, histogram"
bin	-INF	0
bin	0	0
bin	1	1
bin	2	0
statistic RandomGeometricGraph.rgnv[44] 	arrivalTime:histogram
field count 1
field mean 79.396
field stddev nan
field sum 79.396
field sqrsum 6303.724816
field min 79.396
field max 79.396
attr interpolationmode  none
attr source  arrivalTime
attr title  "arrival time, histogram"
bin	-INF	0
bin	78.896	0
bin	78.929333333333	0
bin	78.962666666667	0
bin	78.996	0
bin	79.029333333333	0
bin	79.062666666667	0
bin	79.096	0
bin	79.129333333333	0
bin	79.162666666667	0
bin	79.196	0
bin	79.229333333333	0
bin	79.262666666667	0
bin	79.296	0
bin	79.329333333333	0
bin	79.362666666667	0
bin	79.396	1
bin	79.429333333333	0
bin	79.462666666667	0
bin	79.496	0
bin	79.529333333333	0
bin	79.562666666667	0
bin	79.596	0
bin	79.629333333333	0
bin	79.662666666667	0
bin	79.696	0
bin	79.729333333333	0
bin	79.762666666667	0
bin	79.796	0
bin	79.829333333333	0
bin	79.862666666667	0
bin	79.896	0
statistic RandomGeometricGraph.rgnv[44] 	arrivalPerc:histogram
field count 1
field mean 1
field stddev nan
field sum 1
field sqrsum 1
field min 1
field max 1
attr interpolationmode  none
attr source  count(arrival)
attr title  "arrival perc, histogram"
bin	-INF	0
bin	0	0
bin	1	1
bin	2	0
statistic RandomGeometricGraph.rgnv[45] 	arrivalTime:histogram
field count 1
field mean 96.647
field stddev nan
field sum 96.647
field sqrsum 9340.642609
field min 96.647
field max 96.647
attr interpolationmode  none
attr source  arrivalTime
attr title  "arrival time, histogram"
bin	-INF	0
bin	96.147	0
bin	96.180333333333	0
bin	96.213666666667	0
bin	96.247	0
bin	96.280333333333	0
bin	96.313666666667	0
bin	96.347	0
bin	96.380333333333	0
bin	96.413666666667	0
bin	96.447	0
bin	96.480333333333	0
bin	96.513666666667	0
bin	96.547	0
bin	96.580333333333	0
bin	96.613666666667	0
bin	96.647	1
bin	96.680333333333	0
bin	96.713666666667	0
bin	96.747	0
bin	96.780333333333	0
bin	96.813666666667	0
bin	96.847	0
bin	96.880333333333	0
bin	96.913666666667	0
bin	96.947	0
bin	96.980333333333	0
bin	97.013666666667	0
bin	97.047	0
bin	97.080333333333	0
bin	97.113666666667	0
bin	97.147	0
statistic RandomGeometricGraph.rgnv[45] 	arrivalPerc:histogram
field count 1
field mean 1
field stddev nan
field sum 1
field sqrsum 1
field min 1
field max 1
attr interpolationmode  none
attr source  count(arrival)
attr title  "arrival perc, histogram"
bin	-INF	0
bin	0	0
bin	1	1
bin	2	0
statistic RandomGeometricGraph.rgnv[46] 	arrivalTime:histogram
field count 1
field mean 49.924
field stddev nan
field sum 49.924
field sqrsum 2492.405776
field min 49.924
field max 49.924
attr interpolationmode  none
attr source  arrivalTime
attr title  "arrival time, histogram"
bin	-INF	0
bin	49.424	0
bin	49.457333333333	0
bin	49.490666666667	0
bin	49.524	0
bin	49.557333333333	0
bin	49.590666666667	0
bin	49.624	0
bin	49.657333333333	0
bin	49.690666666667	0
bin	49.724	0
bin	49.757333333333	0
bin	49.790666666667	0
bin	49.824	0
bin	49.857333333333	0
bin	49.890666666667	0
bin	49.924	1
bin	49.957333333333	0
bin	49.990666666667	0
bin	50.024	0
bin	50.057333333333	0
bin	50.090666666667	0
bin	50.124	0
bin	50.157333333333	0
bin	50.190666666667	0
bin	50.224	0
bin	50.257333333333	0
bin	50.290666666667	0
bin	50.324	0
bin	50.357333333333	0
bin	50.390666666667	0
bin	50.424	0
statistic RandomGeometricGraph.rgnv[46] 	arrivalPerc:histogram
field count 1
field mean 1
field stddev nan
field sum 1
field sqrsum 1
field min 1
field max 1
attr interpolationmode  none
attr source  count(arrival)
attr title  "arrival perc, histogram"
bin	-INF	0
bin	0	0
bin	1	1
bin	2	0
statistic RandomGeometricGraph.rgnv[47] 	arrivalTime:histogram
field count 1
field mean 104.436
field stddev nan
field sum 104.436
field sqrsum 10906.878096
field min 104.436
field max 104.436
attr interpolationmode  none
attr source  arrivalTime
attr title  "arrival time, histogram"
bin	-INF	0
bin	103.936	0
bin	103.96933333333	0
bin	104.00266666667	0
bin	104.036	0
bin	104.06933333333	0
bin	104.10266666667	0
bin	104.136	0
bin	104.16933333333	0
bin	104.20266666667	0
bin	104.236	0
bin	104.26933333333	0
bin	104.30266666667	0
bin	104.336	0
bin	104.36933333333	0
bin	104.40266666667	0
bin	104.436	1
bin	104.46933333333	0
bin	104.50266666667	0
bin	104.536	0
bin	104.56933333333	0
bin	104.60266666667	0
bin	104.636	0
bin	104.66933333333	0
bin	104.70266666667	0
bin	104.736	0
bin	104.76933333333	0
bin	104.80266666667	0
bin	104.836	0
bin	104.86933333333	0
bin	104.90266666667	0
bin	104.936	0
statistic RandomGeometricGraph.rgnv[47] 	arrivalPerc:histogram
field count 1
field mean 1
field stddev nan
field sum 1
field sqrsum 1
field min 1
field max 1
attr interpolationmode  none
attr source  count(arrival)
attr title  "arrival perc, histogram"
bin	-INF	0
bin	0	0
bin	1	1
bin	2	0
statistic RandomGeometricGraph.rgnv[48] 	arrivalTime:histogram
field count 1
field mean 86.627
field stddev nan
field sum 86.627
field sqrsum 7504.237129
field min 86.627
field max 86.627
attr interpolationmode  none
attr source  arrivalTime
attr title  "arrival time, histogram"
bin	-INF	0
bin	86.127	0
bin	86.160333333333	0
bin	86.193666666667	0
bin	86.227	0
bin	86.260333333333	0
bin	86.293666666667	0
bin	86.327	0
bin	86.360333333333	0
bin	86.393666666667	0
bin	86.427	0
bin	86.460333333333	0
bin	86.493666666667	0
bin	86.527	0
bin	86.560333333333	0
bin	86.593666666667	0
bin	86.627	1
bin	86.660333333333	0
bin	86.693666666667	0
bin	86.727	0
bin	86.760333333333	0
bin	86.793666666667	0
bin	86.827	0
bin	86.860333333333	0
bin	86.893666666667	0
bin	86.927	0
bin	86.960333333333	0
bin	86.993666666667	0
bin	87.027	0
bin	87.060333333333	0
bin	87.093666666667	0
bin	87.127	0
statistic RandomGeometricGraph.rgnv[48] 	arrivalPerc:histogram
field count 1
field mean 1
field stddev nan
field sum 1
field sqrsum 1
field min 1
field max 1
attr interpolationmode  none
attr source  count(arrival)
attr title  "arrival perc, histogram"
bin	-INF	0
bin	0	0
bin	1	1
bin	2	0
statistic RandomGeometricGraph.rgnv[49] 	arrivalTime:histogram
field count 1
field mean 67.185
field stddev nan
field sum 67.185
field sqrsum 4513.824225
field min 67.185
field max 67.185
attr interpolationmode  none
attr source  arrivalTime
attr title  "arrival time, histogram"
bin	-INF	0
bin	66.685	0
bin	66.718333333333	0
bin	66.751666666667	0
bin	66.785	0
bin	66.818333333333	0
bin	66.851666666667	0
bin	66.885	0
bin	66.918333333333	0
bin	66.951666666667	0
bin	66.985	0
bin	67.018333333333	0
bin	67.051666666667	0
bin	67.085	0
bin	67.118333333333	0
bin	67.151666666667	0
bin	67.185	1
bin	67.218333333333	0
bin	67.251666666667	0
bin	67.285	0
bin	67.318333333333	0
bin	67.351666666667	0
bin	67.385	0
bin	67.418333333333	0
bin	67.451666666667	0
bin	67.485	0
bin	67.518333333333	0
bin	67.551666666667	0
bin	67.585	0
bin	67.618333333333	0
bin	67.651666666667	0
bin	67.685	0
statistic RandomGeometricGraph.rgnv[49] 	arrivalPerc:histogram
field count 1
field mean 1
field stddev nan
field sum 1
field sqrsum 1
field min 1
field max 1
attr interpolationmode  none
attr source  count(arrival)
attr title  "arrival perc, histogram"
bin	-INF	0
bin	0	0
bin	1	1
bin	2	0
statistic RandomGeometricGraph.rgnv[50] 	arrivalTime:histogram
field count 1
field mean 74.406
field stddev nan
field sum 74.406
field sqrsum 5536.252836
field min 74.406
field max 74.406
attr interpolationmode  none
attr source  arrivalTime
attr title  "arrival time, histogram"
bin	-INF	0
bin	73.906	0
bin	73.939333333333	0
bin	73.972666666667	0
bin	74.006	0
bin	74.039333333333	0
bin	74.072666666667	0
bin	74.106	0
bin	74.139333333333	0
bin	74.172666666667	0
bin	74.206	0
bin	74.239333333333	0
bin	74.272666666667	0
bin	74.306	0
bin	74.339333333333	0
bin	74.372666666667	0
bin	74.406	1
bin	74.439333333333	0
bin	74.472666666667	0
bin	74.506	0
bin	74.539333333333	0
bin	74.572666666667	0
bin	74.606	0
bin	74.639333333333	0
bin	74.672666666667	0
bin	74.706	0
bin	74.739333333333	0
bin	74.772666666667	0
bin	74.806	0
bin	74.839333333333	0
bin	74.872666666667	0
bin	74.906	0
statistic RandomGeometricGraph.rgnv[50] 	arrivalPerc:histogram
field count 1
field mean 1
field stddev nan
field sum 1
field sqrsum 1
field min 1
field max 1
attr interpolationmode  none
attr source  count(arrival)
attr title  "arrival perc, histogram"
bin	-INF	0
bin	0	0
bin	1	1
bin	2	0
statistic RandomGeometricGraph.rgnv[51] 	arrivalTime:histogram
field count 1
field mean 79.416
field stddev nan
field sum 79.416
field sqrsum 6306.901056
field min 79.416
field max 79.416
attr interpolationmode  none
attr source  arrivalTime
attr title  "arrival time, histogram"
bin	-INF	0
bin	78.916	0
bin	78.949333333333	0
bin	78.982666666667	0
bin	79.016	0
bin	79.049333333333	0
bin	79.082666666667	0
bin	79.116	0
bin	79.149333333333	0
bin	79.182666666667	0
bin	79.216	0
bin	79.249333333333	0
bin	79.282666666667	0
bin	79.316	0
bin	79.349333333333	0
bin	79.382666666667	0
bin	79.416	1
bin	79.449333333333	0
bin	79.482666666667	0
bin	79.516	0
bin	79.549333333333	0
bin	79.582666666667	0
bin	79.616	0
bin	79.649333333333	0
bin	79.682666666667	0
bin	79.716	0
bin	79.749333333333	0
bin	79.782666666667	0
bin	79.816	0
bin	79.849333333333	0
bin	79.882666666667	0
bin	79.916	0
statistic RandomGeometricGraph.rgnv[51] 	arrivalPerc:histogram
field count 1
field mean 1
field stddev nan
field sum 1
field sqrsum 1
field min 1
field max 1
attr interpolationmode  none
attr source  count(arrival)
attr title  "arrival perc, histogram"
bin	-INF	0
bin	0	0
bin	1	1
bin	2	0
statistic RandomGeometricGraph.rgnv[52] 	arrivalTime:histogram
field count 1
field mean 79.406
field stddev nan
field sum 79.406
field sqrsum 6305.312836
field min 79.406
field max 79.406
attr interpolationmode  none
attr source  arrivalTime
attr title  "arrival time, histogram"
bin	-INF	0
bin	78.906	0
bin	78.939333333333	0
bin	78.972666666667	0
bin	79.006	0
bin	79.039333333333	0
bin	79.072666666667	0
bin	79.106	0
bin	79.139333333333	0
bin	79.172666666667	0
bin	79.206	0
bin	79.239333333333	0
bin	79.272666666667	0
bin	79.306	0
bin	79.339333333333	0
bin	79.372666666667	0
bin	79.406	1
bin	79.439333333333	0
bin	79.472666666667	0
bin	79.506	0
bin	79.539333333333	0
bin	79.572666666667	0
bin	79.606	0
bin	79.639333333333	0
bin	79.672666666667	0
bin	79.706	0
bin	79.739333333333	0
bin	79.772666666667	0
bin	79.806	0
bin	79.839333333333	0
bin	79.872666666667	0
bin	79.906	0
statistic RandomGeometricGraph.rgnv[52] 	arrivalPerc:histogram
field count 1
field mean 1
field stddev nan
field sum 1
field sqrsum 1
field min 1
field max 1
attr interpolationmode  none
attr source  count(arrival)
attr title  "arrival perc, histogram"
bin	-INF	0
bin	0	0
bin	1	1
bin	2	0
statistic RandomGeometricGraph.rgnv[53] 	arrivalTime:histogram
field count 1
field mean 84.416
field stddev nan
field sum 84.416
field sqrsum 7126.061056
field min 84.416
field max 84.416
attr interpolationmode  none
attr source  arrivalTime
attr title  "arrival time, histogram"
bin	-INF	0
bin	83.916	0
bin	83.949333333333	0
bin	83.982666666667	0
bin	84.016	0
bin	84.049333333333	0
bin	84.082666666667	0
bin	84.116	0
bin	84.149333333333	0
bin	84.182666666667	0
bin	84.216	0
bin	84.249333333333	0
bin	84.282666666667	0
bin	84.316	0
bin	84.349333333333	0
bin	84.382666666667	0
bin	84.416	1
bin	84.449333333333	0
bin	84.482666666667	0
bin	84.516	0
bin	84.549333333333	0
bin	84.582666666667	0
bin	84.616	0
bin	84.649333333333	0
bin	84.682666666667	0
bin	84.716	0
bin	84.749333333333	0
bin	84.782666666667	0
bin	84.816	0
bin	84.849333333333	0
bin	84.882666666667	0
bin	84.916	0
statistic RandomGeometricGraph.rgnv[53] 	arrivalPerc:histogram
field count 1
field mean 1
field stddev nan
field sum 1
field sqrsum 1
field min 1
field max 1
attr interpolationmode  none
attr source  count(arrival)
attr title  "arrival perc, histogram"
bin	-INF	0
bin	0	0
bin	1	1
bin	2	0
statistic RandomGeometricGraph.rgnv[54] 	arrivalTime:histogram
field count 1
field mean 103.878
field stddev nan
field sum 103.878
field sqrsum 10790.638884
field min 103.878
field max 103.878
attr interpolationmode  none
attr source  arrivalTime
attr title  "arrival time, histogram"
bin	-INF	0
bin	103.378	0
bin	103.41133333333	0
bin	103.44466666667	0
bin	103.478	0
bin	103.51133333333	0
bin	103.54466666667	0
bin	103.578	0
bin	103.61133333333	0
bin	103.64466666667	0
bin	103.678	0
bin	103.71133333333	0
bin	103.74466666667	0
bin	103.778	0
bin	103.81133333333	0
bin	103.84466666667	0
bin	103.878	1
bin	103.91133333333	0
bin	103.94466666667	0
bin	103.978	0
bin	104.01133333333	0
bin	104.04466666667	0
bin	104.078	0
bin	104.11133333333	0
bin	104.14466666667	0
bin	104.178	0
bin	104.21133333333	0
bin	104.24466666667	0
bin	104.278	0
bin	104.31133333333	0
bin	104.34466666667	0
bin	104.378	0
statistic RandomGeometricGraph.rgnv[54] 	arrivalPerc:histogram
field count 1
field mean 1
field stddev nan
field sum 1
field sqrsum 1
field min 1
field max 1
attr interpolationmode  none
attr source  count(arrival)
attr title  "arrival perc, histogram"
bin	-INF	0
bin	0	0
bin	1	1
bin	2	0
statistic RandomGeometricGraph.rgnv[55] 	arrivalTime:histogram
field count 1
field mean 96.657
field stddev nan
field sum 96.657
field sqrsum 9342.575649
field min 96.657
field max 96.657
attr interpolationmode  none
attr source  arrivalTime
attr title  "arrival time, histogram"
bin	-INF	0
bin	96.157	0
bin	96.190333333333	0
bin	96.223666666667	0
bin	96.257	0
bin	96.290333333333	0
bin	96.323666666667	0
bin	96.357	0
bin	96.390333333333	0
bin	96.423666666667	0
bin	96.457	0
bin	96.490333333333	0
bin	96.523666666667	0
bin	96.557	0
bin	96.590333333333	0
bin	96.623666666667	0
bin	96.657	1
bin	96.690333333333	0
bin	96.723666666667	0
bin	96.757	0
bin	96.790333333333	0
bin	96.823666666667	0
bin	96.857	0
bin	96.890333333333	0
bin	96.923666666667	0
bin	96.957	0
bin	96.990333333333	0
bin	97.023666666667	0
bin	97.057	0
bin	97.090333333333	0
bin	97.123666666667	0
bin	97.157	0
statistic RandomGeometricGraph.rgnv[55] 	arrivalPerc:histogram
field count 1
field mean 1
field stddev nan
field sum 1
field sqrsum 1
field min 1
field max 1
attr interpolationmode  none
attr source  count(arrival)
attr title  "arrival perc, histogram"
bin	-INF	0
bin	0	0
bin	1	1
bin	2	0
statistic RandomGeometricGraph.rgnv[56] 	arrivalTime:histogram
field count 1
field mean 91.647
field stddev nan
field sum 91.647
field sqrsum 8399.172609
field min 91.647
field max 91.647
attr interpolationmode  none
attr source  arrivalTime
attr title  "arrival time, histogram"
bin	-INF	0
bin	91.147	0
bin	91.180333333333	0
bin	91.213666666667	0
bin	91.247	0
bin	91.280333333333	0
bin	91.313666666667	0
bin	91.347	0
bin	91.380333333333	0
bin	91.413666666667	0
bin	91.447	0
bin	91.480333333333	0
bin	91.513666666667	0
bin	91.547	0
bin	91.580333333333	0
bin	91.613666666667	0
bin	91.647	1
bin	91.680333333333	0
bin	91.713666666667	0
bin	91.747	0
bin	91.780333333333	0
bin	91.813666666667	0
bin	91.847	0
bin	91.880333333333	0
bin	91.913666666667	0
bin	91.947	0
bin	91.980333333333	0
bin	92.013666666667	0
bin	92.047	0
bin	92.080333333333	0
bin	92.113666666667	0
bin	92.147	0
statistic RandomGeometricGraph.rgnv[56] 	arrivalPerc:histogram
field count 1
field mean 1
field stddev nan
field sum 1
field sqrsum 1
field min 1
field max 1
attr interpolationmode  none
attr source  count(arrival)
attr title  "arrival perc, histogram"
bin	-INF	0
bin	0	0
bin	1	1
bin	2	0
statistic RandomGeometricGraph.rgnv[57] 	arrivalTime:histogram
field count 1
field mean 116.099
field stddev nan
field sum 116.099
field sqrsum 13478.977801
field min 116.099
field max 116.099
attr interpolationmode  none
attr source  arrivalTime
attr title  "arrival time, histogram"
bin	-INF	0
bin	115.599	0
bin	115.63233333333	0
bin	115.66566666667	0
bin	115.699	0
bin	115.73233333333	0
bin	115.76566666667	0
bin	115.799	0
bin	115.83233333333	0
bin	115.86566666667	0
bin	115.899	0
bin	115.93233333333	0
bin	115.96566666667	0
bin	115.999	0
bin	116.03233333333	0
bin	116.06566666667	0
bin	116.099	1
bin	116.13233333333	0
bin	116.16566666667	0
bin	116.199	0
bin	116.23233333333	0
bin	116.26566666667	0
bin	116.299	0
bin	116.33233333333	0
bin	116.36566666667	0
bin	116.399	0
bin	116.43233333333	0
bin	116.46566666667	0
bin	116.499	0
bin	116.53233333333	0
bin	116.56566666667	0
bin	116.599	0
statistic RandomGeometricGraph.rgnv[57] 	arrivalPerc:histogram
field count 1
field mean 1
field stddev nan
field sum 1
field sqrsum 1
field min 1
field max 1
attr interpolationmode  none
attr source  count(arrival)
attr title  "arrival perc, histogram"
bin	-INF	0
bin	0	0
bin	1	1
bin	2	0
statistic RandomGeometricGraph.rgnv[58] 	arrivalTime:histogram
field count 1
field mean 103.868
field stddev nan
field sum 103.868
field sqrsum 10788.561424
field min 103.868
field max 103.868
attr interpolationmode  none
attr source  arrivalTime
attr title  "arrival time, histogram"
bin	-INF	0
bin	103.368	0
bin	103.40133333333	0
bin	103.43466666667	0
bin	103.468	0
bin	103.50133333333	0
bin	103.53466666667	0
bin	103.568	0
bin	103.60133333333	0
bin	103.63466666667	0
bin	103.668	0
bin	103.70133333333	0
bin	103.73466666667	0
bin	103.768	0
bin	103.80133333333	0
bin	103.83466666667	0
bin	103.868	1
bin	103.90133333333	0
bin	103.93466666667	0
bin	103.968	0
bin	104.00133333333	0
bin	104.03466666667	0
bin	104.068	0
bin	104.10133333333	0
bin	104.13466666667	0
bin	104.168	0
bin	104.20133333333	0
bin	104.23466666667	0
bin	104.268	0
bin	104.30133333333	0
bin	104.33466666667	0
bin	104.368	0
statistic RandomGeometricGraph.rgnv[58] 	arrivalPerc:histogram
field count 1
field mean 1
field stddev nan
field sum 1
field sqrsum 1
field min 1
field max 1
attr interpolationmode  none
attr source  count(arrival)
attr title  "arrival perc, histogram"
bin	-INF	0
bin	0	0
bin	1	1
bin	2	0
statistic RandomGeometricGraph.rgnv[59] 	arrivalTime:histogram
field count 1
field mean 67.175
field stddev nan
field sum 67.175
field sqrsum 4512.480625
field min 67.175
field max 67.175
attr interpolationmode  none
attr source  arrivalTime
attr title  "arrival time, histogram"
bin	-INF	0
bin	66.675	0
bin	66.708333333333	0
bin	66.741666666667	0
bin	66.775	0
bin	66.808333333333	0
bin	66.841666666667	0
bin	66.875	0
bin	66.908333333333	0
bin	66.941666666667	0
bin	66.975	0
bin	67.008333333333	0
bin	67.041666666667	0
bin	67.075	0
bin	67.108333333333	0
bin	67.141666666667	0
bin	67.175	1
bin	67.208333333333	0
bin	67.241666666667	0
bin	67.275	0
bin	67.308333333333	0
bin	67.341666666667	0
bin	67.375	0
bin	67.408333333333	0
bin	67.441666666667	0
bin	67.475	0
bin	67.508333333333	0
bin	67.541666666667	0
bin	67.575	0
bin	67.608333333333	0
bin	67.641666666667	0
bin	67.675	0
statistic RandomGeometricGraph.rgnv[59] 	arrivalPerc:histogram
field count 1
field mean 1
field stddev nan
field sum 1
field sqrsum 1
field min 1
field max 1
attr interpolationmode  none
attr source  count(arrival)
attr title  "arrival perc, histogram"
bin	-INF	0
bin	0	0
bin	1	1
bin	2	0
statistic RandomGeometricGraph.rgnv[60] 	arrivalTime:histogram
field count 1
field mean 84.416
field stddev nan
field sum 84.416
field sqrsum 7126.061056
field min 84.416
field max 84.416
attr interpolationmode  none
attr source  arrivalTime
attr title  "arrival time, histogram"
bin	-INF	0
bin	83.916	0
bin	83.949333333333	0
bin	83.982666666667	0
bin	84.016	0
bin	84.049333333333	0
bin	84.082666666667	0
bin	84.116	0
bin	84.149333333333	0
bin	84.182666666667	0
bin	84.216	0
bin	84.249333333333	0
bin	84.282666666667	0
bin	84.316	0
bin	84.349333333333	0
bin	84.382666666667	0
bin	84.416	1
bin	84.449333333333	0
bin	84.482666666667	0
bin	84.516	0
bin	84.549333333333	0
bin	84.582666666667	0
bin	84.616	0
bin	84.649333333333	0
bin	84.682666666667	0
bin	84.716	0
bin	84.749333333333	0
bin	84.782666666667	0
bin	84.816	0
bin	84.849333333333	0
bin	84.882666666667	0
bin	84.916	0
statistic RandomGeometricGraph.rgnv[60] 	arrivalPerc:histogram
field count 1
field mean 1
field stddev nan
field sum 1
field sqrsum 1
field min 1
field max 1
attr interpolationmode  none
attr source  count(arrival)
attr title  "arrival perc, histogram"
bin	-INF	0
bin	0	0
bin	1	1
bin	2	0
statistic RandomGeometricGraph.rgnv[61] 	arrivalTime:histogram
field count 1
field mean 62.165
field stddev nan
field sum 62.165
field sqrsum 3864.487225
field min 62.165
field max 62.165
attr interpolationmode  none
attr source  arrivalTime
attr title  "arrival time, histogram"
bin	-INF	0
bin	61.665	0
bin	61.698333333333	0
bin	61.731666666667	0
bin	61.765	0
bin	61.798333333333	0
bin	61.831666666667	0
bin	61.865	0
bin	61.898333333333	0
bin	61.931666666667	0
bin	61.965	0
bin	61.998333333333	0
bin	62.031666666667	0
bin	62.065	0
bin	62.098333333333	0
bin	62.131666666667	0
bin	62.165	1
bin	62.198333333333	0
bin	62.231666666667	0
bin	62.265	0
bin	62.298333333333	0
bin	62.331666666667	0
bin	62.365	0
bin	62.398333333333	0
bin	62.431666666667	0
bin	62.465	0
bin	62.498333333333	0
bin	62.531666666667	0
bin	62.565	0
bin	62.598333333333	0
bin	62.631666666667	0
bin	62.665	0
statistic RandomGeometricGraph.rgnv[61] 	arrivalPerc:histogram
field count 1
field mean 1
field stddev nan
field sum 1
field sqrsum 1
field min 1
field max 1
attr interpolationmode  none
attr source  count(arrival)
attr title  "arrival perc, histogram"
bin	-INF	0
bin	0	0
bin	1	1
bin	2	0
statistic RandomGeometricGraph.rgnv[62] 	arrivalTime:histogram
field count 1
field mean 101.657
field stddev nan
field sum 101.657
field sqrsum 10334.145649
field min 101.657
field max 101.657
attr interpolationmode  none
attr source  arrivalTime
attr title  "arrival time, histogram"
bin	-INF	0
bin	101.157	0
bin	101.19033333333	0
bin	101.22366666667	0
bin	101.257	0
bin	101.29033333333	0
bin	101.32366666667	0
bin	101.357	0
bin	101.39033333333	0
bin	101.42366666667	0
bin	101.457	0
bin	101.49033333333	0
bin	101.52366666667	0
bin	101.557	0
bin	101.59033333333	0
bin	101.62366666667	0
bin	101.657	1
bin	101.69033333333	0
bin	101.72366666667	0
bin	101.757	0
bin	101.79033333333	0
bin	101.82366666667	0
bin	101.857	0
bin	101.89033333333	0
bin	101.92366666667	0
bin	101.957	0
bin	101.99033333333	0
bin	102.02366666667	0
bin	102.057	0
bin	102.09033333333	0
bin	102.12366666667	0
bin	102.157	0
statistic RandomGeometricGraph.rgnv[62] 	arrivalPerc:histogram
field count 1
field mean 1
field stddev nan
field sum 1
field sqrsum 1
field min 1
field max 1
attr interpolationmode  none
attr source  count(arrival)
attr title  "arrival perc, histogram"
bin	-INF	0
bin	0	0
bin	1	1
bin	2	0
statistic RandomGeometricGraph.rgnv[63] 	arrivalTime:histogram
field count 1
field mean 86.637
field stddev nan
field sum 86.637
field sqrsum 7505.969769
field min 86.637
field max 86.637
attr interpolationmode  none
attr source  arrivalTime
attr title  "arrival time, histogram"
bin	-INF	0
bin	86.137	0
bin	86.170333333333	0
bin	86.203666666667	0
bin	86.237	0
bin	86.270333333333	0
bin	86.303666666667	0
bin	86.337	0
bin	86.370333333333	0
bin	86.403666666667	0
bin	86.437	0
bin	86.470333333333	0
bin	86.503666666667	0
bin	86.537	0
bin	86.570333333333	0
bin	86.603666666667	0
bin	86.637	1
bin	86.670333333333	0
bin	86.703666666667	0
bin	86.737	0
bin	86.770333333333	0
bin	86.803666666667	0
bin	86.837	0
bin	86.870333333333	0
bin	86.903666666667	0
bin	86.937	0
bin	86.970333333333	0
bin	87.003666666667	0
bin	87.037	0
bin	87.070333333333	0
bin	87.103666666667	0
bin	87.137	0
statistic RandomGeometricGraph.rgnv[63] 	arrivalPerc:histogram
field count 1
field mean 1
field stddev nan
field sum 1
field sqrsum 1
field min 1
field max 1
attr interpolationmode  none
attr source  count(arrival)
attr title  "arrival perc, histogram"
bin	-INF	0
bin	0	0
bin	1	1
bin	2	0
statistic RandomGeometricGraph.rgnv[64] 	arrivalTime:histogram
field count 1
field mean 62.165
field stddev nan
field sum 62.165
field sqrsum 3864.487225
field min 62.165
field max 62.165
attr interpolationmode  none
attr source  arrivalTime
attr title  "arrival time, histogram"
bin	-INF	0
bin	61.665	0
bin	61.698333333333	0
bin	61.731666666667	0
bin	61.765	0
bin	61.798333333333	0
bin	61.831666666667	0
bin	61.865	0
bin	61.898333333333	0
bin	61.931666666667	0
bin	61.965	0
bin	61.998333333333	0
bin	62.031666666667	0
bin	62.065	0
bin	62.098333333333	0
bin	62.131666666667	0
bin	62.165	1
bin	62.198333333333	0
bin	62.231666666667	0
bin	62.265	0
bin	62.298333333333	0
bin	62.331666666667	0
bin	62.365	0
bin	62.398333333333	0
bin	62.431666666667	0
bin	62.465	0
bin	62.498333333333	0
bin	62.531666666667	0
bin	62.565	0
bin	62.598333333333	0
bin	62.631666666667	0
bin	62.665	0
statistic RandomGeometricGraph.rgnv[64] 	arrivalPerc:histogram
field count 1
field mean 1
field stddev nan
field sum 1
field sqrsum 1
field min 1
field max 1
attr interpolationmode  none
attr source  count(arrival)
attr title  "arrival perc, histogram"
bin	-INF	0
bin	0	0
bin	1	1
bin	2	0
statistic RandomGeometricGraph.rgnv[65] 	arrivalTime:histogram
field count 1
field mean 62.175
field stddev nan
field sum 62.175
field sqrsum 3865.730625
field min 62.175
field max 62.175
attr interpolationmode  none
attr source  arrivalTime
attr title  "arrival time, histogram"
bin	-INF	0
bin	61.675	0
bin	61.708333333333	0
bin	61.741666666667	0
bin	61.775	0
bin	61.808333333333	0
bin	61.841666666667	0
bin	61.875	0
bin	61.908333333333	0
bin	61.941666666667	0
bin	61.975	0
bin	62.008333333333	0
bin	62.041666666667	0
bin	62.075	0
bin	62.108333333333	0
bin	62.141666666667	0
bin	62.175	1
bin	62.208333333333	0
bin	62.241666666667	0
bin	62.275	0
bin	62.308333333333	0
bin	62.341666666667	0
bin	62.375	0
bin	62.408333333333	0
bin	62.441666666667	0
bin	62.475	0
bin	62.508333333333	0
bin	62.541666666667	0
bin	62.575	0
bin	62.608333333333	0
bin	62.641666666667	0
bin	62.675	0
statistic RandomGeometricGraph.rgnv[65] 	arrivalPerc:histogram
field count 1
field mean 1
field stddev nan
field sum 1
field sqrsum 1
field min 1
field max 1
attr interpolationmode  none
attr source  count(arrival)
attr title  "arrival perc, histogram"
bin	-INF	0
bin	0	0
bin	1	1
bin	2	0
statistic RandomGeometricGraph.rgnv[66] 	arrivalTime:histogram
field count 1
field mean 98.868
field stddev nan
field sum 98.868
field sqrsum 9774.881424
field min 98.868
field max 98.868
attr interpolationmode  none
attr source  arrivalTime
attr title  "arrival time, histogram"
bin	-INF	0
bin	98.368	0
bin	98.401333333333	0
bin	98.434666666667	0
bin	98.468	0
bin	98.501333333333	0
bin	98.534666666667	0
bin	98.568	0
bin	98.601333333333	0
bin	98.634666666667	0
bin	98.668	0
bin	98.701333333333	0
bin	98.734666666667	0
bin	98.768	0
bin	98.801333333333	0
bin	98.834666666667	0
bin	98.868	1
bin	98.901333333333	0
bin	98.934666666667	0
bin	98.968	0
bin	99.001333333333	0
bin	99.034666666667	0
bin	99.068	0
bin	99.101333333333	0
bin	99.134666666667	0
bin	99.168	0
bin	99.201333333333	0
bin	99.234666666667	0
bin	99.268	0
bin	99.301333333333	0
bin	99.334666666667	0
bin	99.368	0
statistic RandomGeometricGraph.rgnv[66] 	arrivalPerc:histogram
field count 1
field mean 1
field stddev nan
field sum 1
field sqrsum 1
field min 1
field max 1
attr interpolationmode  none
attr source  count(arrival)
attr title  "arrival perc, histogram"
bin	-INF	0
bin	0	0
bin	1	1
bin	2	0
statistic RandomGeometricGraph.rgnv[67] 	arrivalTime:histogram
field count 1
field mean 108.878
field stddev nan
field sum 108.878
field sqrsum 11854.418884
field min 108.878
field max 108.878
attr interpolationmode  none
attr source  arrivalTime
attr title  "arrival time, histogram"
bin	-INF	0
bin	108.378	0
bin	108.41133333333	0
bin	108.44466666667	0
bin	108.478	0
bin	108.51133333333	0
bin	108.54466666667	0
bin	108.578	0
[...]
field sum 1
field sqrsum 1
field min 1
field max 1
attr interpolationmode  none
attr source  count(arrival)
attr title  "arrival perc, histogram"
bin	-INF	0
bin	0	0
bin	1	1
bin	2	0
statistic RandomGeometricGraph.rgnv[83] 	arrivalTime:histogram
field count 1
field mean 49.934
field stddev nan
field sum 49.934
field sqrsum 2493.404356
field min 49.934
field max 49.934
attr interpolationmode  none
attr source  arrivalTime
attr title  "arrival time, histogram"
bin	-INF	0
bin	49.434	0
bin	49.467333333333	0
bin	49.500666666667	0
bin	49.534	0
bin	49.567333333333	0
bin	49.600666666667	0
bin	49.634	0
bin	49.667333333333	0
bin	49.700666666667	0
bin	49.734	0
bin	49.767333333333	0
bin	49.800666666667	0
bin	49.834	0
bin	49.867333333333	0
bin	49.900666666667	0
bin	49.934	1
bin	49.967333333333	0
bin	50.000666666667	0
bin	50.034	0
bin	50.067333333333	0
bin	50.100666666667	0
bin	50.134	0
bin	50.167333333333	0
bin	50.200666666667	0
bin	50.234	0
bin	50.267333333333	0
bin	50.300666666667	0
bin	50.334	0
bin	50.367333333333	0
bin	50.400666666667	0
bin	50.434	0
statistic RandomGeometricGraph.rgnv[83] 	arrivalPerc:histogram
field count 1
field mean 1
field stddev nan
field sum 1
field sqrsum 1
field min 1
field max 1
attr interpolationmode  none
attr source  count(arrival)
attr title  "arrival perc, histogram"
bin	-INF	0
bin	0	0
bin	1	1
bin	2	0
statistic RandomGeometricGraph.rgnv[84] 	arrivalTime:histogram
field count 1
field mean 49.944
field stddev nan
field sum 49.944
field sqrsum 2494.403136
field min 49.944
field max 49.944
attr interpolationmode  none
attr source  arrivalTime
attr title  "arrival time, histogram"
bin	-INF	0
bin	49.444	0
bin	49.477333333333	0
bin	49.510666666667	0
bin	49.544	0
bin	49.577333333333	0
bin	49.610666666667	0
bin	49.644	0
bin	49.677333333333	0
bin	49.710666666667	0
bin	49.744	0
bin	49.777333333333	0
bin	49.810666666667	0
bin	49.844	0
bin	49.877333333333	0
bin	49.910666666667	0
bin	49.944	1
bin	49.977333333333	0
bin	50.010666666667	0
bin	50.044	0
bin	50.077333333333	0
bin	50.110666666667	0
bin	50.144	0
bin	50.177333333333	0
bin	50.210666666667	0
bin	50.244	0
bin	50.277333333333	0
bin	50.310666666667	0
bin	50.344	0
bin	50.377333333333	0
bin	50.410666666667	0
bin	50.444	0
statistic RandomGeometricGraph.rgnv[84] 	arrivalPerc:histogram
field count 1
field mean 1
field stddev nan
field sum 1
field sqrsum 1
field min 1
field max 1
attr interpolationmode  none
attr source  count(arrival)
attr title  "arrival perc, histogram"
bin	-INF	0
bin	0	0
bin	1	1
bin	2	0
statistic RandomGeometricGraph.rgnv[85] 	arrivalTime:histogram
field count 1
field mean 62.165
field stddev nan
field sum 62.165
field sqrsum 3864.487225
field min 62.165
field max 62.165
attr interpolationmode  none
attr source  arrivalTime
attr title  "arrival time, histogram"
bin	-INF	0
bin	61.665	0
bin	61.698333333333	0
bin	61.731666666667	0
bin	61.765	0
bin	61.798333333333	0
bin	61.831666666667	0
bin	61.865	0
bin	61.898333333333	0
bin	61.931666666667	0
bin	61.965	0
bin	61.998333333333	0
bin	62.031666666667	0
bin	62.065	0
bin	62.098333333333	0
bin	62.131666666667	0
bin	62.165	1
bin	62.198333333333	0
bin	62.231666666667	0
bin	62.265	0
bin	62.298333333333	0
bin	62.331666666667	0
bin	62.365	0
bin	62.398333333333	0
bin	62.431666666667	0
bin	62.465	0
bin	62.498333333333	0
bin	62.531666666667	0
bin	62.565	0
bin	62.598333333333	0
bin	62.631666666667	0
bin	62.665	0
statistic RandomGeometricGraph.rgnv[85] 	arrivalPerc:histogram
field count 1
field mean 1
field stddev nan
field sum 1
field sqrsum 1
field min 1
field max 1
attr interpolationmode  none
attr source  count(arrival)
attr title  "arrival perc, histogram"
bin	-INF	0
bin	0	0
bin	1	1
bin	2	0
statistic RandomGeometricGraph.rgnv[86] 	arrivalTime:histogram
field count 1
field mean 103.868
field stddev nan
field sum 103.868
field sqrsum 10788.561424
field min 103.868
field max 103.868
attr interpolationmode  none
attr source  arrivalTime
attr title  "arrival time, histogram"
bin	-INF	0
bin	103.368	0
bin	103.40133333333	0
bin	103.43466666667	0
bin	103.468	0
bin	103.50133333333	0
bin	103.53466666667	0
bin	103.568	0
bin	103.60133333333	0
bin	103.63466666667	0
bin	103.668	0
bin	103.70133333333	0
bin	103.73466666667	0
bin	103.768	0
bin	103.80133333333	0
bin	103.83466666667	0
bin	103.868	1
bin	103.90133333333	0
bin	103.93466666667	0
bin	103.968	0
bin	104.00133333333	0
bin	104.03466666667	0
bin	104.068	0
bin	104.10133333333	0
bin	104.13466666667	0
bin	104.168	0
bin	104.20133333333	0
bin	104.23466666667	0
bin	104.268	0
bin	104.30133333333	0
bin	104.33466666667	0
bin	104.368	0
statistic RandomGeometricGraph.rgnv[86] 	arrivalPerc:histogram
field count 1
field mean 1
field stddev nan
field sum 1
field sqrsum 1
field min 1
field max 1
attr interpolationmode  none
attr source  count(arrival)
attr title  "arrival perc, histogram"
bin	-INF	0
bin	0	0
bin	1	1
bin	2	0
statistic RandomGeometricGraph.rgnv[87] 	arrivalTime:histogram
field count 1
field mean 62.165
field stddev nan
field sum 62.165
field sqrsum 3864.487225
field min 62.165
field max 62.165
attr interpolationmode  none
attr source  arrivalTime
attr title  "arrival time, histogram"
bin	-INF	0
bin	61.665	0
bin	61.698333333333	0
bin	61.731666666667	0
bin	61.765	0
bin	61.798333333333	0
bin	61.831666666667	0
bin	61.865	0
bin	61.898333333333	0
bin	61.931666666667	0
bin	61.965	0
bin	61.998333333333	0
bin	62.031666666667	0
bin	62.065	0
bin	62.098333333333	0
bin	62.131666666667	0
bin	62.165	1
bin	62.198333333333	0
bin	62.231666666667	0
bin	62.265	0
bin	62.298333333333	0
bin	62.331666666667	0
bin	62.365	0
bin	62.398333333333	0
bin	62.431666666667	0
bin	62.465	0
bin	62.498333333333	0
bin	62.531666666667	0
bin	62.565	0
bin	62.598333333333	0
bin	62.631666666667	0
bin	62.665	0
statistic RandomGeometricGraph.rgnv[87] 	arrivalPerc:histogram
field count 1
field mean 1
field stddev nan
field sum 1
field sqrsum 1
field min 1
field max 1
attr interpolationmode  none
attr source  count(arrival)
attr title  "arrival perc, histogram"
bin	-INF	0
bin	0	0
bin	1	1
bin	2	0
statistic RandomGeometricGraph.rgnv[88] 	arrivalTime:histogram
field count 1
field mean 74.416
field stddev nan
field sum 74.416
field sqrsum 5537.741056
field min 74.416
field max 74.416
attr interpolationmode  none
attr source  arrivalTime
attr title  "arrival time, histogram"
bin	-INF	0
bin	73.916	0
bin	73.949333333333	0
bin	73.982666666667	0
bin	74.016	0
bin	74.049333333333	0
bin	74.082666666667	0
bin	74.116	0
bin	74.149333333333	0
bin	74.182666666667	0
bin	74.216	0
bin	74.249333333333	0
bin	74.282666666667	0
bin	74.316	0
bin	74.349333333333	0
bin	74.382666666667	0
bin	74.416	1
bin	74.449333333333	0
bin	74.482666666667	0
bin	74.516	0
bin	74.549333333333	0
bin	74.582666666667	0
bin	74.616	0
bin	74.649333333333	0
bin	74.682666666667	0
bin	74.716	0
bin	74.749333333333	0
bin	74.782666666667	0
bin	74.816	0
bin	74.849333333333	0
bin	74.882666666667	0
bin	74.916	0
statistic RandomGeometricGraph.rgnv[88] 	arrivalPerc:histogram
field count 1
field mean 1
field stddev nan
field sum 1
field sqrsum 1
field min 1
field max 1
attr interpolationmode  none
attr source  count(arrival)
attr title  "arrival perc, histogram"
bin	-INF	0
bin	0	0
bin	1	1
bin	2	0
statistic RandomGeometricGraph.rgnv[89] 	arrivalTime:histogram
field count 1
field mean 89.426
field stddev nan
field sum 89.426
field sqrsum 7997.009476
field min 89.426
field max 89.426
attr interpolationmode  none
attr source  arrivalTime
attr title  "arrival time, histogram"
bin	-INF	0
bin	88.926	0
bin	88.959333333333	0
bin	88.992666666667	0
bin	89.026	0
bin	89.059333333333	0
bin	89.092666666667	0
bin	89.126	0
bin	89.159333333333	0
bin	89.192666666667	0
bin	89.226	0
bin	89.259333333333	0
bin	89.292666666667	0
bin	89.326	0
bin	89.359333333333	0
bin	89.392666666667	0
bin	89.426	1
bin	89.459333333333	0
bin	89.492666666667	0
bin	89.526	0
bin	89.559333333333	0
bin	89.592666666667	0
bin	89.626	0
bin	89.659333333333	0
bin	89.692666666667	0
bin	89.726	0
bin	89.759333333333	0
bin	89.792666666667	0
bin	89.826	0
bin	89.859333333333	0
bin	89.892666666667	0
bin	89.926	0
statistic RandomGeometricGraph.rgnv[89] 	arrivalPerc:histogram
field count 1
field mean 1
field stddev nan
field sum 1
field sqrsum 1
field min 1
field max 1
attr interpolationmode  none
attr source  count(arrival)
attr title  "arrival perc, histogram"
bin	-INF	0
bin	0	0
bin	1	1
bin	2	0
statistic RandomGeometricGraph.rgnv[90] 	arrivalTime:histogram
field count 1
field mean 98.878
field stddev nan
field sum 98.878
field sqrsum 9776.858884
field min 98.878
field max 98.878
attr interpolationmode  none
attr source  arrivalTime
attr title  "arrival time, histogram"
bin	-INF	0
bin	98.378	0
bin	98.411333333333	0
bin	98.444666666667	0
bin	98.478	0
bin	98.511333333333	0
bin	98.544666666667	0
bin	98.578	0
bin	98.611333333333	0
bin	98.644666666667	0
bin	98.678	0
bin	98.711333333333	0
bin	98.744666666667	0
bin	98.778	0
bin	98.811333333333	0
bin	98.844666666667	0
bin	98.878	1
bin	98.911333333333	0
bin	98.944666666667	0
bin	98.978	0
bin	99.011333333333	0
bin	99.044666666667	0
bin	99.078	0
bin	99.111333333333	0
bin	99.144666666667	0
bin	99.178	0
bin	99.211333333333	0
bin	99.244666666667	0
bin	99.278	0
bin	99.311333333333	0
bin	99.344666666667	0
bin	99.378	0
statistic RandomGeometricGraph.rgnv[90] 	arrivalPerc:histogram
field count 1
field mean 1
field stddev nan
field sum 1
field sqrsum 1
field min 1
field max 1
attr interpolationmode  none
attr source  count(arrival)
attr title  "arrival perc, histogram"
bin	-INF	0
bin	0	0
bin	1	1
bin	2	0
statistic RandomGeometricGraph.rgnv[91] 	arrivalTime:histogram
field count 1
field mean 79.406
field stddev nan
field sum 79.406
field sqrsum 6305.312836
field min 79.406
field max 79.406
attr interpolationmode  none
attr source  arrivalTime
attr title  "arrival time, histogram"
bin	-INF	0
bin	78.906	0
bin	78.939333333333	0
bin	78.972666666667	0
bin	79.006	0
bin	79.039333333333	0
bin	79.072666666667	0
bin	79.106	0
bin	79.139333333333	0
bin	79.172666666667	0
bin	79.206	0
bin	79.239333333333	0
bin	79.272666666667	0
bin	79.306	0
bin	79.339333333333	0
bin	79.372666666667	0
bin	79.406	1
bin	79.439333333333	0
bin	79.472666666667	0
bin	79.506	0
bin	79.539333333333	0
bin	79.572666666667	0
bin	79.606	0
bin	79.639333333333	0
bin	79.672666666667	0
bin	79.706	0
bin	79.739333333333	0
bin	79.772666666667	0
bin	79.806	0
bin	79.839333333333	0
bin	79.872666666667	0
bin	79.906	0
statistic RandomGeometricGraph.rgnv[91] 	arrivalPerc:histogram
field count 1
field mean 1
field stddev nan
field sum 1
field sqrsum 1
field min 1
field max 1
attr interpolationmode  none
attr source  count(arrival)
attr title  "arrival perc, histogram"
bin	-INF	0
bin	0	0
bin	1	1
bin	2	0
statistic RandomGeometricGraph.rgnv[92] 	arrivalTime:histogram
field count 1
field mean 79.416
field stddev nan
field sum 79.416
field sqrsum 6306.901056
field min 79.416
field max 79.416
attr interpolationmode  none
attr source  arrivalTime
attr title  "arrival time, histogram"
bin	-INF	0
bin	78.916	0
bin	78.949333333333	0
bin	78.982666666667	0
bin	79.016	0
bin	79.049333333333	0
bin	79.082666666667	0
bin	79.116	0
bin	79.149333333333	0
bin	79.182666666667	0
bin	79.216	0
bin	79.249333333333	0
bin	79.282666666667	0
bin	79.316	0
bin	79.349333333333	0
bin	79.382666666667	0
bin	79.416	1
bin	79.449333333333	0
bin	79.482666666667	0
bin	79.516	0
bin	79.549333333333	0
bin	79.582666666667	0
bin	79.616	0
bin	79.649333333333	0
bin	79.682666666667	0
bin	79.716	0
bin	79.749333333333	0
bin	79.782666666667	0
bin	79.816	0
bin	79.849333333333	0
bin	79.882666666667	0
bin	79.916	0
statistic RandomGeometricGraph.rgnv[92] 	arrivalPerc:histogram
field count 1
field mean 1
field stddev nan
field sum 1
field sqrsum 1
field min 1
field max 1
attr interpolationmode  none
attr source  count(arrival)
attr title  "arrival perc, histogram"
bin	-INF	0
bin	0	0
bin	1	1
bin	2	0
statistic RandomGeometricGraph.rgnv[93] 	arrivalTime:histogram
field count 1
field mean 103.868
field stddev nan
field sum 103.868
field sqrsum 10788.561424
field min 103.868
field max 103.868
attr interpolationmode  none
attr source  arrivalTime
attr title  "arrival time, histogram"
bin	-INF	0
bin	103.368	0
bin	103.40133333333	0
bin	103.43466666667	0
bin	103.468	0
bin	103.50133333333	0
bin	103.53466666667	0
bin	103.568	0
bin	103.60133333333	0
bin	103.63466666667	0
bin	103.668	0
bin	103.70133333333	0
bin	103.73466666667	0
bin	103.768	0
bin	103.80133333333	0
bin	103.83466666667	0
bin	103.868	1
bin	103.90133333333	0
bin	103.93466666667	0
bin	103.968	0
bin	104.00133333333	0
bin	104.03466666667	0
bin	104.068	0
bin	104.10133333333	0
bin	104.13466666667	0
bin	104.168	0
bin	104.20133333333	0
bin	104.23466666667	0
bin	104.268	0
bin	104.30133333333	0
bin	104.33466666667	0
bin	104.368	0
statistic RandomGeometricGraph.rgnv[93] 	arrivalPerc:histogram
field count 1
field mean 1
field stddev nan
field sum 1
field sqrsum 1
field min 1
field max 1
attr interpolationmode  none
attr source  count(arrival)
attr title  "arrival perc, histogram"
bin	-INF	0
bin	0	0
bin	1	1
bin	2	0
statistic RandomGeometricGraph.rgnv[94] 	arrivalTime:histogram
field count 1
field mean 74.386
field stddev nan
field sum 74.386
field sqrsum 5533.276996
field min 74.386
field max 74.386
attr interpolationmode  none
attr source  arrivalTime
attr title  "arrival time, histogram"
bin	-INF	0
bin	73.886	0
bin	73.919333333333	0
bin	73.952666666667	0
bin	73.986	0
bin	74.019333333333	0
bin	74.052666666667	0
bin	74.086	0
bin	74.119333333333	0
bin	74.152666666667	0
bin	74.186	0
bin	74.219333333333	0
bin	74.252666666667	0
bin	74.286	0
bin	74.319333333333	0
bin	74.352666666667	0
bin	74.386	1
bin	74.419333333333	0
bin	74.452666666667	0
bin	74.486	0
bin	74.519333333333	0
bin	74.552666666667	0
bin	74.586	0
bin	74.619333333333	0
bin	74.652666666667	0
bin	74.686	0
bin	74.719333333333	0
bin	74.752666666667	0
bin	74.786	0
bin	74.819333333333	0
bin	74.852666666667	0
bin	74.886	0
statistic RandomGeometricGraph.rgnv[94] 	arrivalPerc:histogram
field count 1
field mean 1
field stddev nan
field sum 1
field sqrsum 1
field min 1
field max 1
attr interpolationmode  none
attr source  count(arrival)
attr title  "arrival perc, histogram"
bin	-INF	0
bin	0	0
bin	1	1
bin	2	0
statistic RandomGeometricGraph.rgnv[95] 	arrivalTime:histogram
field count 1
field mean 74.396
field stddev nan
field sum 74.396
field sqrsum 5534.764816
field min 74.396
field max 74.396
attr interpolationmode  none
attr source  arrivalTime
attr title  "arrival time, histogram"
bin	-INF	0
bin	73.896	0
bin	73.929333333333	0
bin	73.962666666667	0
bin	73.996	0
bin	74.029333333333	0
bin	74.062666666667	0
bin	74.096	0
bin	74.129333333333	0
bin	74.162666666667	0
bin	74.196	0
bin	74.229333333333	0
bin	74.262666666667	0
bin	74.296	0
bin	74.329333333333	0
bin	74.362666666667	0
bin	74.396	1
bin	74.429333333333	0
bin	74.462666666667	0
bin	74.496	0
bin	74.529333333333	0
bin	74.562666666667	0
bin	74.596	0
bin	74.629333333333	0
bin	74.662666666667	0
bin	74.696	0
bin	74.729333333333	0
bin	74.762666666667	0
bin	74.796	0
bin	74.829333333333	0
bin	74.862666666667	0
bin	74.896	0
statistic RandomGeometricGraph.rgnv[95] 	arrivalPerc:histogram
field count 1
field mean 1
field stddev nan
field sum 1
field sqrsum 1
field min 1
field max 1
attr interpolationmode  none
attr source  count(arrival)
attr title  "arrival perc, histogram"
bin	-INF	0
bin	0	0
bin	1	1
bin	2	0
statistic RandomGeometricGraph.rgnv[96] 	arrivalTime:histogram
field count 1
field mean 72.185
field stddev nan
field sum 72.185
field sqrsum 5210.674225
field min 72.185
field max 72.185
attr interpolationmode  none
attr source  arrivalTime
attr title  "arrival time, histogram"
bin	-INF	0
bin	71.685	0
bin	71.718333333333	0
bin	71.751666666667	0
bin	71.785	0
bin	71.818333333333	0
bin	71.851666666667	0
bin	71.885	0
bin	71.918333333333	0
bin	71.951666666667	0
bin	71.985	0
bin	72.018333333333	0
bin	72.051666666667	0
bin	72.085	0
bin	72.118333333333	0
bin	72.151666666667	0
bin	72.185	1
bin	72.218333333333	0
bin	72.251666666667	0
bin	72.285	0
bin	72.318333333333	0
bin	72.351666666667	0
bin	72.385	0
bin	72.418333333333	0
bin	72.451666666667	0
bin	72.485	0
bin	72.518333333333	0
bin	72.551666666667	0
bin	72.585	0
bin	72.618333333333	0
bin	72.651666666667	0
bin	72.685	0
statistic RandomGeometricGraph.rgnv[96] 	arrivalPerc:histogram
field count 1
field mean 1
field stddev nan
field sum 1
field sqrsum 1
field min 1
field max 1
attr interpolationmode  none
attr source  count(arrival)
attr title  "arrival perc, histogram"
bin	-INF	0
bin	0	0
bin	1	1
bin	2	0
statistic RandomGeometricGraph.rgnv[97] 	arrivalTime:histogram
field count 1
field mean 108.868
field stddev nan
field sum 108.868
field sqrsum 11852.241424
field min 108.868
field max 108.868
attr interpolationmode  none
attr source  arrivalTime
attr title  "arrival time, histogram"
bin	-INF	0
bin	108.368	0
bin	108.40133333333	0
bin	108.43466666667	0
bin	108.468	0
bin	108.50133333333	0
bin	108.53466666667	0
bin	108.568	0
bin	108.60133333333	0
bin	108.63466666667	0
bin	108.668	0
bin	108.70133333333	0
bin	108.73466666667	0
bin	108.768	0
bin	108.80133333333	0
bin	108.83466666667	0
bin	108.868	1
bin	108.90133333333	0
bin	108.93466666667	0
bin	108.968	0
bin	109.00133333333	0
bin	109.03466666667	0
bin	109.068	0
bin	109.10133333333	0
bin	109.13466666667	0
bin	109.168	0
bin	109.20133333333	0
bin	109.23466666667	0
bin	109.268	0
bin	109.30133333333	0
bin	109.33466666667	0
bin	109.368	0
statistic RandomGeometricGraph.rgnv[97] 	arrivalPerc:histogram
field count 1
field mean 1
field stddev nan
field sum 1
field sqrsum 1
field min 1
field max 1
attr interpolationmode  none
attr source  count(arrival)
attr title  "arrival perc, histogram"
bin	-INF	0
bin	0	0
bin	1	1
bin	2	0
statistic RandomGeometricGraph.rgnv[98] 	arrivalTime:histogram
field count 1
field mean 37.693
field stddev nan
field sum 37.693
field sqrsum 1420.762249
field min 37.693
field max 37.693
attr interpolationmode  none
attr source  arrivalTime
attr title  "arrival time, histogram"
bin	-INF	0
bin	37.193	0
bin	37.226333333333	0
bin	37.259666666667	0
bin	37.293	0
bin	37.326333333333	0
bin	37.359666666667	0
bin	37.393	0
bin	37.426333333333	0
bin	37.459666666667	0
bin	37.493	0
bin	37.526333333333	0
bin	37.559666666667	0
bin	37.593	0
bin	37.626333333333	0
bin	37.659666666667	0
bin	37.693	1
bin	37.726333333333	0
bin	37.759666666667	0
bin	37.793	0
bin	37.826333333333	0
bin	37.859666666667	0
bin	37.893	0
bin	37.926333333333	0
bin	37.959666666667	0
bin	37.993	0
bin	38.026333333333	0
bin	38.059666666667	0
bin	38.093	0
bin	38.126333333333	0
bin	38.159666666667	0
bin	38.193	0
statistic RandomGeometricGraph.rgnv[98] 	arrivalPerc:histogram
field count 1
field mean 1
field stddev nan
field sum 1
field sqrsum 1
field min 1
field max 1
attr interpolationmode  none
attr source  count(arrival)
attr title  "arrival perc, histogram"
bin	-INF	0
bin	0	0
bin	1	1
bin	2	0
statistic RandomGeometricGraph.rgnv[99] 	arrivalTime:histogram
field count 1
field mean 96.647
field stddev nan
field sum 96.647
field sqrsum 9340.642609
field min 96.647
field max 96.647
attr interpolationmode  none
attr source  arrivalTime
attr title  "arrival time, histogram"
bin	-INF	0
bin	96.147	0
bin	96.180333333333	0
bin	96.213666666667	0
bin	96.247	0
bin	96.280333333333	0
bin	96.313666666667	0
bin	96.347	0
bin	96.380333333333	0
bin	96.413666666667	0
bin	96.447	0
bin	96.480333333333	0
bin	96.513666666667	0
bin	96.547	0
bin	96.580333333333	0
bin	96.613666666667	0
bin	96.647	1
bin	96.680333333333	0
bin	96.713666666667	0
bin	96.747	0
bin	96.780333333333	0
bin	96.813666666667	0
bin	96.847	0
bin	96.880333333333	0
bin	96.913666666667	0
bin	96.947	0
bin	96.980333333333	0
bin	97.013666666667	0
bin	97.047	0
bin	97.080333333333	0
bin	97.113666666667	0
bin	97.147	0
statistic RandomGeometricGraph.rgnv[99] 	arrivalPerc:histogram
field count 1
field mean 1
field stddev nan
field sum 1
field sqrsum 1
field min 1
field max 1
attr interpolationmode  none
attr source  count(arrival)
attr title  "arrival perc, histogram"
bin	-INF	0
bin	0	0
bin	1	1
bin	2	0
